# generated using pymatgen
data_Mg0.75Mn0.75Fe0.5O3
_symmetry_space_group_name_H-M   'P 1'
_cell_length_a   3.73567000
_cell_length_b   3.73567000
_cell_length_c   3.73567000
_cell_angle_alpha   90.00000000
_cell_angle_beta   90.00000000
_cell_angle_gamma   90.00000000
_symmetry_Int_Tables_number   1
_chemical_formula_structural   Mg0.75Mn0.75Fe0.5O3
_chemical_formula_sum   'Mg0.75 Mn0.75 Fe0.5 O3'
_cell_volume   52.13213536
_cell_formula_units_Z   1
loop_
 _symmetry_equiv_pos_site_id
 _symmetry_equiv_pos_as_xyz
  1  'x, y, z'
loop_
 _atom_type_symbol
 _atom_type_oxidation_number
  Mg0+  0.0
  Mn0+  0.0
  Fe0+  0.0
  O0+  0.0
loop_
 _atom_site_type_symbol
 _atom_site_label
 _atom_site_symmetry_multiplicity
 _atom_site_fract_x
 _atom_site_fract_y
 _atom_site_fract_z
 _atom_site_occupancy
  Mg0+  Mg0  1  0.00000000  0.00000000  0.00000000  0.75
  Fe0+  Fe1  1  0.00000000  0.00000000  0.00000000  0.25
  Mn0+  Mn2  1  0.50000000  0.50000000  0.50000000  0.75
  Fe0+  Fe3  1  0.50000000  0.50000000  0.50000000  0.25
  O0+  O4  1  0.50000000  0.00000000  0.50000000  1.0
  O0+  O5  1  0.00000000  0.50000000  0.50000000  1.0
  O0+  O6  1  0.50000000  0.50000000  0.00000000  1.0
