# generated using pymatgen
data_Mg2.25Mn1Fe0.75O4
_symmetry_space_group_name_H-M   'P 1'
_cell_length_a   4.33654514
_cell_length_b   4.33654514
_cell_length_c   4.33654514
_cell_angle_alpha   90.00000000
_cell_angle_beta   90.00000000
_cell_angle_gamma   90.00000000
_symmetry_Int_Tables_number   1
_chemical_formula_structural   Mg2.25Mn1Fe0.75O4
_chemical_formula_sum   'Mg2.25 Mn1 Fe0.75 O4'
_cell_volume   81.55143610
_cell_formula_units_Z   1
loop_
 _symmetry_equiv_pos_site_id
 _symmetry_equiv_pos_as_xyz
  1  'x, y, z'
loop_
 _atom_type_symbol
 _atom_type_oxidation_number
  Mg0+  0.0
  Mn0+  0.0
  Fe0+  0.0
  O0+  0.0
loop_
 _atom_site_type_symbol
 _atom_site_label
 _atom_site_symmetry_multiplicity
 _atom_site_fract_x
 _atom_site_fract_y
 _atom_site_fract_z
 _atom_site_occupancy
  Mg0+  Mg0  1  0.00000000  0.50000000  0.50000000  0.75
  Mn0+  Mn1  1  0.00000000  0.50000000  0.50000000  0.25
  Mg0+  Mg2  1  0.50000000  0.00000000  0.50000000  0.75
  Mn0+  Mn3  1  0.50000000  0.00000000  0.50000000  0.25
  Mg0+  Mg4  1  0.50000000  0.50000000  0.00000000  0.75
  Mn0+  Mn5  1  0.50000000  0.50000000  0.00000000  0.25
  Mn0+  Mn6  1  0.00000000  0.00000000  0.00000000  0.25
  Fe0+  Fe7  1  0.00000000  0.00000000  0.00000000  0.75
  O0+  O8  1  0.50000000  0.00000000  0.00000000  1.0
  O0+  O9  1  0.50000000  0.50000000  0.50000000  1.0
  O0+  O10  1  0.00000000  0.00000000  0.50000000  1.0
  O0+  O11  1  0.00000000  0.50000000  0.00000000  1.0
