# generated using pymatgen
data_Mg2Mn3FeO8
_symmetry_space_group_name_H-M   'P 1'
_cell_length_a   8.60230600
_cell_length_b   8.60230600
_cell_length_c   8.60230600
_cell_angle_alpha   90.00000000
_cell_angle_beta   90.00000000
_cell_angle_gamma   90.00000000
_symmetry_Int_Tables_number   1
_chemical_formula_structural   Mg2Mn3FeO8
_chemical_formula_sum   'Mg8 Mn12 Fe4 O32'
_cell_volume   636.56779249
_cell_formula_units_Z   4
loop_
 _symmetry_equiv_pos_site_id
 _symmetry_equiv_pos_as_xyz
  1  'x, y, z'
loop_
 _atom_type_symbol
 _atom_type_oxidation_number
  Mg0+  0.0
  Mn0+  0.0
  Fe0+  0.0
  O0+  0.0
loop_
 _atom_site_type_symbol
 _atom_site_label
 _atom_site_symmetry_multiplicity
 _atom_site_fract_x
 _atom_site_fract_y
 _atom_site_fract_z
 _atom_site_occupancy
  Mg0+  Mg0  1  0.50000000  0.00000000  0.50000000  1.0
  Mg0+  Mg1  1  0.25000000  0.25000000  0.25000000  1.0
  Mg0+  Mg2  1  0.50000000  0.50000000  0.00000000  1.0
  Mg0+  Mg3  1  0.25000000  0.75000000  0.75000000  1.0
  Mg0+  Mg4  1  0.00000000  0.00000000  0.00000000  1.0
  Mg0+  Mg5  1  0.75000000  0.25000000  0.75000000  1.0
  Mg0+  Mg6  1  0.00000000  0.50000000  0.50000000  1.0
  Mg0+  Mg7  1  0.75000000  0.75000000  0.25000000  1.0
  Mn0+  Mn8  1  0.37500000  0.87500000  0.12500000  0.75
  Fe0+  Fe9  1  0.37500000  0.87500000  0.12500000  0.25
  Mn0+  Mn10  1  0.37500000  0.62500000  0.37500000  0.75
  Fe0+  Fe11  1  0.37500000  0.62500000  0.37500000  0.25
  Mn0+  Mn12  1  0.12500000  0.87500000  0.37500000  0.75
  Fe0+  Fe13  1  0.12500000  0.87500000  0.37500000  0.25
  Mn0+  Mn14  1  0.12500000  0.62500000  0.12500000  0.75
  Fe0+  Fe15  1  0.12500000  0.62500000  0.12500000  0.25
  Mn0+  Mn16  1  0.37500000  0.37500000  0.62500000  0.75
  Fe0+  Fe17  1  0.37500000  0.37500000  0.62500000  0.25
  Mn0+  Mn18  1  0.37500000  0.12500000  0.87500000  0.75
  Fe0+  Fe19  1  0.37500000  0.12500000  0.87500000  0.25
  Mn0+  Mn20  1  0.12500000  0.37500000  0.87500000  0.75
  Fe0+  Fe21  1  0.12500000  0.37500000  0.87500000  0.25
  Mn0+  Mn22  1  0.12500000  0.12500000  0.62500000  0.75
  Fe0+  Fe23  1  0.12500000  0.12500000  0.62500000  0.25
  Mn0+  Mn24  1  0.87500000  0.87500000  0.62500000  0.75
  Fe0+  Fe25  1  0.87500000  0.87500000  0.62500000  0.25
  Mn0+  Mn26  1  0.87500000  0.62500000  0.87500000  0.75
  Fe0+  Fe27  1  0.87500000  0.62500000  0.87500000  0.25
  Mn0+  Mn28  1  0.62500000  0.87500000  0.87500000  0.75
  Fe0+  Fe29  1  0.62500000  0.87500000  0.87500000  0.25
  Mn0+  Mn30  1  0.62500000  0.62500000  0.62500000  0.75
  Fe0+  Fe31  1  0.62500000  0.62500000  0.62500000  0.25
  Mn0+  Mn32  1  0.87500000  0.37500000  0.12500000  0.75
  Fe0+  Fe33  1  0.87500000  0.37500000  0.12500000  0.25
  Mn0+  Mn34  1  0.87500000  0.12500000  0.37500000  0.75
  Fe0+  Fe35  1  0.87500000  0.12500000  0.37500000  0.25
  Mn0+  Mn36  1  0.62500000  0.37500000  0.37500000  0.75
  Fe0+  Fe37  1  0.62500000  0.37500000  0.37500000  0.25
  Mn0+  Mn38  1  0.62500000  0.12500000  0.12500000  0.75
  Fe0+  Fe39  1  0.62500000  0.12500000  0.12500000  0.25
  O0+  O40  1  0.11448333  0.38551667  0.11448333  1.0
  O0+  O41  1  0.63551667  0.13551667  0.36448333  1.0
  O0+  O42  1  0.36448333  0.86448333  0.36448333  1.0
  O0+  O43  1  0.86448333  0.13551667  0.13551667  1.0
  O0+  O44  1  0.38551667  0.38551667  0.38551667  1.0
  O0+  O45  1  0.38551667  0.11448333  0.11448333  1.0
  O0+  O46  1  0.13551667  0.86448333  0.13551667  1.0
  O0+  O47  1  0.11448333  0.11448333  0.38551667  1.0
  O0+  O48  1  0.11448333  0.88551667  0.61448333  1.0
  O0+  O49  1  0.63551667  0.63551667  0.86448333  1.0
  O0+  O50  1  0.36448333  0.36448333  0.86448333  1.0
  O0+  O51  1  0.86448333  0.63551667  0.63551667  1.0
  O0+  O52  1  0.38551667  0.88551667  0.88551667  1.0
  O0+  O53  1  0.38551667  0.61448333  0.61448333  1.0
  O0+  O54  1  0.13551667  0.36448333  0.63551667  1.0
  O0+  O55  1  0.11448333  0.61448333  0.88551667  1.0
  O0+  O56  1  0.61448333  0.38551667  0.61448333  1.0
  O0+  O57  1  0.13551667  0.13551667  0.86448333  1.0
  O0+  O58  1  0.86448333  0.86448333  0.86448333  1.0
  O0+  O59  1  0.36448333  0.13551667  0.63551667  1.0
  O0+  O60  1  0.88551667  0.38551667  0.88551667  1.0
  O0+  O61  1  0.88551667  0.11448333  0.61448333  1.0
  O0+  O62  1  0.63551667  0.86448333  0.63551667  1.0
  O0+  O63  1  0.61448333  0.11448333  0.88551667  1.0
  O0+  O64  1  0.61448333  0.88551667  0.11448333  1.0
  O0+  O65  1  0.13551667  0.63551667  0.36448333  1.0
  O0+  O66  1  0.86448333  0.36448333  0.36448333  1.0
  O0+  O67  1  0.36448333  0.63551667  0.13551667  1.0
  O0+  O68  1  0.88551667  0.88551667  0.38551667  1.0
  O0+  O69  1  0.88551667  0.61448333  0.11448333  1.0
  O0+  O70  1  0.63551667  0.36448333  0.13551667  1.0
  O0+  O71  1  0.61448333  0.61448333  0.38551667  1.0
