# generated using pymatgen
data_Mg3Mn(FeO2)8
_symmetry_space_group_name_H-M   'P 1'
_cell_length_a   5.90132621
_cell_length_b   5.90522361
_cell_length_c   8.41241229
_cell_angle_alpha   90.15525188
_cell_angle_beta   89.89239935
_cell_angle_gamma   90.08326633
_symmetry_Int_Tables_number   1
_chemical_formula_structural   Mg3Mn(FeO2)8
_chemical_formula_sum   'Mg3 Mn1 Fe8 O16'
_cell_volume   293.15931850
_cell_formula_units_Z   1
loop_
 _symmetry_equiv_pos_site_id
 _symmetry_equiv_pos_as_xyz
  1  'x, y, z'
loop_
 _atom_type_symbol
 _atom_type_oxidation_number
  Mg0+  0.0
  Mn0+  0.0
  Fe0+  0.0
  O0+  0.0
loop_
 _atom_site_type_symbol
 _atom_site_label
 _atom_site_symmetry_multiplicity
 _atom_site_fract_x
 _atom_site_fract_y
 _atom_site_fract_z
 _atom_site_occupancy
  Mg0+  Mg0  1  0.50002173  0.50010620  0.49999163  0.75
  Mn0+  Mn1  1  0.50002173  0.50010620  0.49999163  0.25
  Mg0+  Mg2  1  0.49997827  -0.00010620  0.75000837  0.75
  Mn0+  Mn3  1  0.49997827  -0.00010620  0.75000837  0.25
  Mg0+  Mg4  1  0.00002173  0.00010620  -0.00000837  0.75
  Mn0+  Mn5  1  0.00002173  0.00010620  -0.00000837  0.25
  Mg0+  Mg6  1  -0.00002173  0.49989380  0.25000837  0.75
  Mn0+  Mn7  1  -0.00002173  0.49989380  0.25000837  0.25
  Fe0+  Fe8  1  -0.00000000  0.25000000  0.62500000  1.0
  Fe0+  Fe9  1  -0.00000000  0.75000000  0.62500000  1.0
  Fe0+  Fe10  1  0.25000000  0.00000000  0.37500000  1.0
  Fe0+  Fe11  1  0.25000000  0.50000000  0.87500000  1.0
  Fe0+  Fe12  1  0.50000000  0.75000000  0.12500000  1.0
  Fe0+  Fe13  1  0.50000000  0.25000000  0.12500000  1.0
  Fe0+  Fe14  1  0.75000000  0.50000000  0.87500000  1.0
  Fe0+  Fe15  1  0.75000000  0.00000000  0.37500000  1.0
  O0+  O16  1  0.22675562  -0.00000542  0.61330297  1.0
  O0+  O17  1  0.22670161  0.50075259  0.63721835  1.0
  O0+  O18  1  -0.00002203  0.27293168  0.86302103  1.0
  O0+  O19  1  0.00004254  0.72640057  0.86292301  1.0
  O0+  O20  1  0.00002203  0.22706832  0.38697897  1.0
  O0+  O21  1  -0.00004254  0.77359943  0.38707699  1.0
  O0+  O22  1  0.77324438  0.50000542  0.63669703  1.0
  O0+  O23  1  0.77329839  -0.00075259  0.61278165  1.0
  O0+  O24  1  0.72675562  0.49999458  0.11330297  1.0
  O0+  O25  1  0.72670161  0.00075259  0.13721835  1.0
  O0+  O26  1  0.49997797  0.77293168  0.36302103  1.0
  O0+  O27  1  0.50004254  0.22640058  0.36292301  1.0
  O0+  O28  1  0.50002203  0.72706832  0.88697896  1.0
  O0+  O29  1  0.49995746  0.27359943  0.88707699  1.0
  O0+  O30  1  0.27324438  0.00000542  0.13669703  1.0
  O0+  O31  1  0.27329839  0.49924741  0.11278165  1.0
