# generated using pymatgen
data_Mg3Mn7(FeO8)2
_symmetry_space_group_name_H-M   'P 1'
_cell_length_a   8.48099181
_cell_length_b   8.46885955
_cell_length_c   8.48543544
_cell_angle_alpha   89.96661751
_cell_angle_beta   89.81644233
_cell_angle_gamma   89.96273800
_symmetry_Int_Tables_number   1
_chemical_formula_structural   Mg3Mn7(FeO8)2
_chemical_formula_sum   'Mg6 Mn14 Fe4 O32'
_cell_volume   609.45734255
_cell_formula_units_Z   2
loop_
 _symmetry_equiv_pos_site_id
 _symmetry_equiv_pos_as_xyz
  1  'x, y, z'
loop_
 _atom_type_symbol
 _atom_type_oxidation_number
  Mg0+  0.0
  Mn0+  0.0
  Fe0+  0.0
  O0+  0.0
loop_
 _atom_site_type_symbol
 _atom_site_label
 _atom_site_symmetry_multiplicity
 _atom_site_fract_x
 _atom_site_fract_y
 _atom_site_fract_z
 _atom_site_occupancy
  Mg0+  Mg0  1  0.49995777  -0.00006397  0.49999163  0.75
  Mn0+  Mn1  1  0.49995777  -0.00006397  0.49999163  0.25
  Mg0+  Mg2  1  0.25004223  0.25006396  0.25000837  0.75
  Mn0+  Mn3  1  0.25004223  0.25006396  0.25000837  0.25
  Mg0+  Mg4  1  0.49995777  0.49993604  -0.00000837  0.75
  Mn0+  Mn5  1  0.49995777  0.49993604  -0.00000837  0.25
  Mg0+  Mg6  1  0.25004223  0.75006396  0.75000837  0.75
  Mn0+  Mn7  1  0.25004223  0.75006396  0.75000837  0.25
  Mg0+  Mg8  1  -0.00004223  -0.00006397  -0.00000837  0.75
  Mn0+  Mn9  1  -0.00004223  -0.00006397  -0.00000837  0.25
  Mg0+  Mg10  1  0.75004223  0.25006396  0.75000837  0.75
  Mn0+  Mn11  1  0.75004223  0.25006396  0.75000837  0.25
  Mg0+  Mg12  1  -0.00004223  0.49993604  0.49999163  0.75
  Mn0+  Mn13  1  -0.00004223  0.49993604  0.49999163  0.25
  Mg0+  Mg14  1  0.75004223  0.75006396  0.25000837  0.75
  Mn0+  Mn15  1  0.75004223  0.75006396  0.25000837  0.25
  Mn0+  Mn16  1  0.37500000  0.87500000  0.12500000  0.75
  Fe0+  Fe17  1  0.37500000  0.87500000  0.12500000  0.25
  Mn0+  Mn18  1  0.37500000  0.62500000  0.37500000  0.75
  Fe0+  Fe19  1  0.37500000  0.62500000  0.37500000  0.25
  Mn0+  Mn20  1  0.12500000  0.87500000  0.37500000  0.75
  Fe0+  Fe21  1  0.12500000  0.87500000  0.37500000  0.25
  Mn0+  Mn22  1  0.12500000  0.62500000  0.12500000  0.75
  Fe0+  Fe23  1  0.12500000  0.62500000  0.12500000  0.25
  Mn0+  Mn24  1  0.37500000  0.37500000  0.62500000  0.75
  Fe0+  Fe25  1  0.37500000  0.37500000  0.62500000  0.25
  Mn0+  Mn26  1  0.37500000  0.12500000  0.87500000  0.75
  Fe0+  Fe27  1  0.37500000  0.12500000  0.87500000  0.25
  Mn0+  Mn28  1  0.12500000  0.37500000  0.87500000  0.75
  Fe0+  Fe29  1  0.12500000  0.37500000  0.87500000  0.25
  Mn0+  Mn30  1  0.12500000  0.12500000  0.62500000  0.75
  Fe0+  Fe31  1  0.12500000  0.12500000  0.62500000  0.25
  Mn0+  Mn32  1  0.87500000  0.87500000  0.62500000  0.75
  Fe0+  Fe33  1  0.87500000  0.87500000  0.62500000  0.25
  Mn0+  Mn34  1  0.87500000  0.62500000  0.87500000  0.75
  Fe0+  Fe35  1  0.87500000  0.62500000  0.87500000  0.25
  Mn0+  Mn36  1  0.62500000  0.87500000  0.87500000  0.75
  Fe0+  Fe37  1  0.62500000  0.87500000  0.87500000  0.25
  Mn0+  Mn38  1  0.62500000  0.62500000  0.62500000  0.75
  Fe0+  Fe39  1  0.62500000  0.62500000  0.62500000  0.25
  Mn0+  Mn40  1  0.87500000  0.37500000  0.12500000  0.75
  Fe0+  Fe41  1  0.87500000  0.37500000  0.12500000  0.25
  Mn0+  Mn42  1  0.87500000  0.12500000  0.37500000  0.75
  Fe0+  Fe43  1  0.87500000  0.12500000  0.37500000  0.25
  Mn0+  Mn44  1  0.62500000  0.37500000  0.37500000  0.75
  Fe0+  Fe45  1  0.62500000  0.37500000  0.37500000  0.25
  Mn0+  Mn46  1  0.62500000  0.12500000  0.12500000  0.75
  Fe0+  Fe47  1  0.62500000  0.12500000  0.12500000  0.25
  O0+  O48  1  0.11321268  0.38679274  0.11332294  1.0
  O0+  O49  1  0.63698882  0.13694628  0.36294298  1.0
  O0+  O50  1  0.36335531  0.86337734  0.36304101  1.0
  O0+  O51  1  0.86280667  0.13644074  0.13719838  1.0
  O0+  O52  1  0.38664469  0.38662266  0.38695899  1.0
  O0+  O53  1  0.38719333  0.11355926  0.11280162  1.0
  O0+  O54  1  0.13678732  0.86320726  0.13667706  1.0
  O0+  O55  1  0.11301118  0.11305372  0.38705702  1.0
  O0+  O56  1  0.11321268  0.88679274  0.61332294  1.0
  O0+  O57  1  0.63698882  0.63694628  0.86294298  1.0
  O0+  O58  1  0.36335531  0.36337734  0.86304101  1.0
  O0+  O59  1  0.86280667  0.63644074  0.63719838  1.0
  O0+  O60  1  0.38664469  0.88662266  0.88695899  1.0
  O0+  O61  1  0.38719333  0.61355926  0.61280162  1.0
  O0+  O62  1  0.13678732  0.36320726  0.63667706  1.0
  O0+  O63  1  0.11301118  0.61305372  0.88705702  1.0
  O0+  O64  1  0.61321268  0.38679274  0.61332294  1.0
  O0+  O65  1  0.13698882  0.13694628  0.86294298  1.0
  O0+  O66  1  0.86335531  0.86337734  0.86304101  1.0
  O0+  O67  1  0.36280668  0.13644074  0.63719838  1.0
  O0+  O68  1  0.88664469  0.38662266  0.88695899  1.0
  O0+  O69  1  0.88719333  0.11355926  0.61280162  1.0
  O0+  O70  1  0.63678732  0.86320726  0.63667706  1.0
  O0+  O71  1  0.61301118  0.11305372  0.88705702  1.0
  O0+  O72  1  0.61321268  0.88679274  0.11332294  1.0
  O0+  O73  1  0.13698882  0.63694628  0.36294298  1.0
  O0+  O74  1  0.86335531  0.36337734  0.36304101  1.0
  O0+  O75  1  0.36280668  0.63644074  0.13719838  1.0
  O0+  O76  1  0.88664469  0.88662266  0.38695899  1.0
  O0+  O77  1  0.88719333  0.61355926  0.11280162  1.0
  O0+  O78  1  0.63678732  0.36320726  0.13667706  1.0
  O0+  O79  1  0.61301118  0.61305372  0.38705702  1.0
