# generated using pymatgen
data_Mg6MnFe21O32
_symmetry_space_group_name_H-M   'P 1'
_cell_length_a   8.56870258
_cell_length_b   8.56870258
_cell_length_c   8.56870258
_cell_angle_alpha   90.00000000
_cell_angle_beta   90.00000000
_cell_angle_gamma   90.00000000
_symmetry_Int_Tables_number   1
_chemical_formula_structural   Mg6MnFe21O32
_chemical_formula_sum   'Mg6 Mn1 Fe21 O32'
_cell_volume   629.13696889
_cell_formula_units_Z   1
loop_
 _symmetry_equiv_pos_site_id
 _symmetry_equiv_pos_as_xyz
  1  'x, y, z'
loop_
 _atom_type_symbol
 _atom_type_oxidation_number
  Mg0+  0.0
  Mn0+  0.0
  Fe0+  0.0
  O0+  0.0
loop_
 _atom_site_type_symbol
 _atom_site_label
 _atom_site_symmetry_multiplicity
 _atom_site_fract_x
 _atom_site_fract_y
 _atom_site_fract_z
 _atom_site_occupancy
  Mg0+  Mg0  1  0.00000000  0.75000000  0.75000000  0.25
  Fe0+  Fe1  1  0.00000000  0.75000000  0.75000000  0.75
  Mg0+  Mg2  1  0.75000000  0.00000000  0.75000000  0.25
  Fe0+  Fe3  1  0.75000000  0.00000000  0.75000000  0.75
  Mg0+  Mg4  1  0.25000000  0.00000000  0.75000000  0.25
  Fe0+  Fe5  1  0.25000000  0.00000000  0.75000000  0.75
  Mg0+  Mg6  1  0.25000000  0.75000000  0.00000000  0.25
  Fe0+  Fe7  1  0.25000000  0.75000000  0.00000000  0.75
  Mg0+  Mg8  1  0.00000000  0.25000000  0.75000000  0.25
  Fe0+  Fe9  1  0.00000000  0.25000000  0.75000000  0.75
  Mn0+  Mn10  1  0.50000000  0.00000000  0.00000000  0.25
  Fe0+  Fe11  1  0.50000000  0.00000000  0.00000000  0.75
  Mg0+  Mg12  1  0.25000000  0.25000000  0.00000000  0.25
  Fe0+  Fe13  1  0.25000000  0.25000000  0.00000000  0.75
  Mg0+  Mg14  1  0.00000000  0.25000000  0.25000000  0.25
  Fe0+  Fe15  1  0.00000000  0.25000000  0.25000000  0.75
  Mg0+  Mg16  1  0.75000000  0.50000000  0.25000000  0.25
  Fe0+  Fe17  1  0.75000000  0.50000000  0.25000000  0.75
  Mg0+  Mg18  1  0.25000000  0.50000000  0.25000000  0.25
  Fe0+  Fe19  1  0.25000000  0.50000000  0.25000000  0.75
  Mg0+  Mg20  1  0.25000000  0.25000000  0.50000000  0.25
  Fe0+  Fe21  1  0.25000000  0.25000000  0.50000000  0.75
  Mg0+  Mg22  1  0.00000000  0.75000000  0.25000000  0.25
  Fe0+  Fe23  1  0.00000000  0.75000000  0.25000000  0.75
  Mn0+  Mn24  1  0.50000000  0.50000000  0.50000000  0.25
  Fe0+  Fe25  1  0.50000000  0.50000000  0.50000000  0.75
  Mg0+  Mg26  1  0.25000000  0.75000000  0.50000000  0.25
  Fe0+  Fe27  1  0.25000000  0.75000000  0.50000000  0.75
  Mg0+  Mg28  1  0.50000000  0.75000000  0.25000000  0.25
  Fe0+  Fe29  1  0.50000000  0.75000000  0.25000000  0.75
  Mg0+  Mg30  1  0.25000000  0.00000000  0.25000000  0.25
  Fe0+  Fe31  1  0.25000000  0.00000000  0.25000000  0.75
  Mg0+  Mg32  1  0.75000000  0.00000000  0.25000000  0.25
  Fe0+  Fe33  1  0.75000000  0.00000000  0.25000000  0.75
  Mg0+  Mg34  1  0.75000000  0.75000000  0.50000000  0.25
  Fe0+  Fe35  1  0.75000000  0.75000000  0.50000000  0.75
  Mg0+  Mg36  1  0.50000000  0.25000000  0.25000000  0.25
  Fe0+  Fe37  1  0.50000000  0.25000000  0.25000000  0.75
  Mn0+  Mn38  1  0.00000000  0.00000000  0.50000000  0.25
  Fe0+  Fe39  1  0.00000000  0.00000000  0.50000000  0.75
  Mg0+  Mg40  1  0.75000000  0.25000000  0.50000000  0.25
  Fe0+  Fe41  1  0.75000000  0.25000000  0.50000000  0.75
  Mg0+  Mg42  1  0.50000000  0.25000000  0.75000000  0.25
  Fe0+  Fe43  1  0.50000000  0.25000000  0.75000000  0.75
  Mg0+  Mg44  1  0.25000000  0.50000000  0.75000000  0.25
  Fe0+  Fe45  1  0.25000000  0.50000000  0.75000000  0.75
  Mg0+  Mg46  1  0.75000000  0.50000000  0.75000000  0.25
  Fe0+  Fe47  1  0.75000000  0.50000000  0.75000000  0.75
  Mg0+  Mg48  1  0.75000000  0.25000000  0.00000000  0.25
  Fe0+  Fe49  1  0.75000000  0.25000000  0.00000000  0.75
  Mg0+  Mg50  1  0.50000000  0.75000000  0.75000000  0.25
  Fe0+  Fe51  1  0.50000000  0.75000000  0.75000000  0.75
  Mn0+  Mn52  1  0.00000000  0.50000000  0.00000000  0.25
  Fe0+  Fe53  1  0.00000000  0.50000000  0.00000000  0.75
  Mg0+  Mg54  1  0.75000000  0.75000000  0.00000000  0.25
  Fe0+  Fe55  1  0.75000000  0.75000000  0.00000000  0.75
  O0+  O56  1  0.25000000  0.75000000  0.75000000  1.0
  O0+  O57  1  0.26612299  0.00000000  0.00000000  1.0
  O0+  O58  1  0.50000000  0.00000000  0.76612299  1.0
  O0+  O59  1  0.50000000  0.76612299  0.00000000  1.0
  O0+  O60  1  0.50000000  0.23387701  0.00000000  1.0
  O0+  O61  1  0.00000000  0.00000000  0.73387701  1.0
  O0+  O62  1  0.73387701  0.00000000  0.00000000  1.0
  O0+  O63  1  0.25000000  0.25000000  0.75000000  1.0
  O0+  O64  1  0.25000000  0.25000000  0.25000000  1.0
  O0+  O65  1  0.26612299  0.50000000  0.50000000  1.0
  O0+  O66  1  0.50000000  0.50000000  0.26612299  1.0
  O0+  O67  1  0.50000000  0.26612299  0.50000000  1.0
  O0+  O68  1  0.50000000  0.73387701  0.50000000  1.0
  O0+  O69  1  0.00000000  0.50000000  0.23387701  1.0
  O0+  O70  1  0.73387701  0.50000000  0.50000000  1.0
  O0+  O71  1  0.25000000  0.75000000  0.25000000  1.0
  O0+  O72  1  0.75000000  0.75000000  0.25000000  1.0
  O0+  O73  1  0.76612299  0.00000000  0.50000000  1.0
  O0+  O74  1  0.00000000  0.00000000  0.26612299  1.0
  O0+  O75  1  0.00000000  0.76612299  0.50000000  1.0
  O0+  O76  1  0.00000000  0.23387701  0.50000000  1.0
  O0+  O77  1  0.50000000  0.00000000  0.23387701  1.0
  O0+  O78  1  0.23387701  0.00000000  0.50000000  1.0
  O0+  O79  1  0.75000000  0.25000000  0.25000000  1.0
  O0+  O80  1  0.75000000  0.25000000  0.75000000  1.0
  O0+  O81  1  0.76612299  0.50000000  0.00000000  1.0
  O0+  O82  1  0.00000000  0.50000000  0.76612299  1.0
  O0+  O83  1  0.00000000  0.26612299  0.00000000  1.0
  O0+  O84  1  0.00000000  0.73387701  0.00000000  1.0
  O0+  O85  1  0.50000000  0.50000000  0.73387701  1.0
  O0+  O86  1  0.23387701  0.50000000  0.00000000  1.0
  O0+  O87  1  0.75000000  0.75000000  0.75000000  1.0
