# generated using pymatgen
data_MgFe11O16
_symmetry_space_group_name_H-M   'P 1'
_cell_length_a   8.43353030
_cell_length_b   8.46023688
_cell_length_c   8.43353030
_cell_angle_alpha   90.00000000
_cell_angle_beta   90.00000000
_cell_angle_gamma   90.00000000
_symmetry_Int_Tables_number   1
_chemical_formula_structural   MgFe11O16
_chemical_formula_sum   'Mg2 Fe22 O32'
_cell_volume   601.72955416
_cell_formula_units_Z   2
loop_
 _symmetry_equiv_pos_site_id
 _symmetry_equiv_pos_as_xyz
  1  'x, y, z'
loop_
 _atom_type_symbol
 _atom_type_oxidation_number
  Mg0+  0.0
  Fe0+  0.0
  O0+  0.0
loop_
 _atom_site_type_symbol
 _atom_site_label
 _atom_site_symmetry_multiplicity
 _atom_site_fract_x
 _atom_site_fract_y
 _atom_site_fract_z
 _atom_site_occupancy
  Mg0+  Mg0  1  0.50000000  0.00000000  0.50000000  0.25
  Fe0+  Fe1  1  0.50000000  0.00000000  0.50000000  0.75
  Mg0+  Mg2  1  0.75000000  0.75000000  0.25000000  0.25
  Fe0+  Fe3  1  0.75000000  0.75000000  0.25000000  0.75
  Mg0+  Mg4  1  0.50000000  0.50000000  -0.00000000  0.25
  Fe0+  Fe5  1  0.50000000  0.50000000  -0.00000000  0.75
  Mg0+  Mg6  1  0.75000000  0.25000000  0.75000000  0.25
  Fe0+  Fe7  1  0.75000000  0.25000000  0.75000000  0.75
  Mg0+  Mg8  1  0.00000000  0.00000000  0.00000000  0.25
  Fe0+  Fe9  1  0.00000000  0.00000000  0.00000000  0.75
  Mg0+  Mg10  1  0.25000000  0.75000000  0.75000000  0.25
  Fe0+  Fe11  1  0.25000000  0.75000000  0.75000000  0.75
  Mg0+  Mg12  1  0.00000000  0.50000000  0.50000000  0.25
  Fe0+  Fe13  1  0.00000000  0.50000000  0.50000000  0.75
  Mg0+  Mg14  1  0.25000000  0.25000000  0.25000000  0.25
  Fe0+  Fe15  1  0.25000000  0.25000000  0.25000000  0.75
  Fe0+  Fe16  1  0.87500000  0.87500000  0.62500000  1.0
  Fe0+  Fe17  1  0.12500000  0.62500000  0.12500000  1.0
  Fe0+  Fe18  1  0.12500000  0.87500000  0.37500000  1.0
  Fe0+  Fe19  1  0.37500000  0.62500000  0.37500000  1.0
  Fe0+  Fe20  1  0.87500000  0.37500000  0.12500000  1.0
  Fe0+  Fe21  1  0.12500000  0.12500000  0.62500000  1.0
  Fe0+  Fe22  1  0.12500000  0.37500000  0.87500000  1.0
  Fe0+  Fe23  1  0.37500000  0.12500000  0.87500000  1.0
  Fe0+  Fe24  1  0.37500000  0.87500000  0.12500000  1.0
  Fe0+  Fe25  1  0.62500000  0.62500000  0.62500000  1.0
  Fe0+  Fe26  1  0.62500000  0.87500000  0.87500000  1.0
  Fe0+  Fe27  1  0.87500000  0.62500000  0.87500000  1.0
  Fe0+  Fe28  1  0.37500000  0.37500000  0.62500000  1.0
  Fe0+  Fe29  1  0.62500000  0.12500000  0.12500000  1.0
  Fe0+  Fe30  1  0.62500000  0.37500000  0.37500000  1.0
  Fe0+  Fe31  1  0.87500000  0.12500000  0.37500000  1.0
  O0+  O32  1  0.13265516  0.86725094  0.13265516  1.0
  O0+  O33  1  0.11734484  0.11725094  0.38265516  1.0
  O0+  O34  1  0.88265516  0.88274906  0.38265516  1.0
  O0+  O35  1  0.13265516  0.63274906  0.36734484  1.0
  O0+  O36  1  0.88265516  0.11725094  0.61734484  1.0
  O0+  O37  1  0.36734484  0.86725094  0.36734484  1.0
  O0+  O38  1  0.11734484  0.88274906  0.61734484  1.0
  O0+  O39  1  0.36734484  0.63274906  0.13265516  1.0
  O0+  O40  1  0.13265516  0.36725094  0.63265516  1.0
  O0+  O41  1  0.11734484  0.61725094  0.88265516  1.0
  O0+  O42  1  0.88265516  0.38274906  0.88265516  1.0
  O0+  O43  1  0.13265516  0.13274906  0.86734484  1.0
  O0+  O44  1  0.88265516  0.61725094  0.11734484  1.0
  O0+  O45  1  0.36734484  0.36725094  0.86734484  1.0
  O0+  O46  1  0.11734484  0.38274906  0.11734484  1.0
  O0+  O47  1  0.36734484  0.13274906  0.63265516  1.0
  O0+  O48  1  0.63265516  0.86725094  0.63265516  1.0
  O0+  O49  1  0.61734484  0.11725094  0.88265516  1.0
  O0+  O50  1  0.38265516  0.88274906  0.88265516  1.0
  O0+  O51  1  0.63265516  0.63274906  0.86734484  1.0
  O0+  O52  1  0.38265516  0.11725094  0.11734484  1.0
  O0+  O53  1  0.86734484  0.86725094  0.86734484  1.0
  O0+  O54  1  0.61734484  0.88274906  0.11734484  1.0
  O0+  O55  1  0.86734484  0.63274906  0.63265516  1.0
  O0+  O56  1  0.63265516  0.36725094  0.13265516  1.0
  O0+  O57  1  0.61734484  0.61725094  0.38265516  1.0
  O0+  O58  1  0.38265516  0.38274906  0.38265516  1.0
  O0+  O59  1  0.63265516  0.13274906  0.36734484  1.0
  O0+  O60  1  0.38265516  0.61725094  0.61734484  1.0
  O0+  O61  1  0.86734484  0.36725094  0.36734484  1.0
  O0+  O62  1  0.61734484  0.38274906  0.61734484  1.0
  O0+  O63  1  0.86734484  0.13274906  0.13265516  1.0
