# generated using pymatgen
data_MgMn5(Fe3O8)2
_symmetry_space_group_name_H-M   'P 1'
_cell_length_a   8.23843442
_cell_length_b   8.20197172
_cell_length_c   8.25176461
_cell_angle_alpha   89.89661268
_cell_angle_beta   89.43338684
_cell_angle_gamma   89.88457703
_symmetry_Int_Tables_number   1
_chemical_formula_structural   MgMn5(Fe3O8)2
_chemical_formula_sum   'Mg2 Mn10 Fe12 O32'
_cell_volume   557.55405377
_cell_formula_units_Z   2
loop_
 _symmetry_equiv_pos_site_id
 _symmetry_equiv_pos_as_xyz
  1  'x, y, z'
loop_
 _atom_type_symbol
 _atom_type_oxidation_number
  Mg0+  0.0
  Mn0+  0.0
  Fe0+  0.0
  O0+  0.0
loop_
 _atom_site_type_symbol
 _atom_site_label
 _atom_site_symmetry_multiplicity
 _atom_site_fract_x
 _atom_site_fract_y
 _atom_site_fract_z
 _atom_site_occupancy
  Mg0+  Mg0  1  0.49987330  -0.00019190  0.49997490  0.25
  Mn0+  Mn1  1  0.49987330  -0.00019190  0.49997490  0.75
  Mg0+  Mg2  1  0.25012670  0.25019190  0.25002510  0.25
  Mn0+  Mn3  1  0.25012670  0.25019190  0.25002510  0.75
  Mg0+  Mg4  1  0.49987330  0.49980810  -0.00002510  0.25
  Mn0+  Mn5  1  0.49987330  0.49980810  -0.00002510  0.75
  Mg0+  Mg6  1  0.25012670  0.75019189  0.75002510  0.25
  Mn0+  Mn7  1  0.25012670  0.75019189  0.75002510  0.75
  Mg0+  Mg8  1  -0.00012670  -0.00019190  -0.00002510  0.25
  Mn0+  Mn9  1  -0.00012670  -0.00019190  -0.00002510  0.75
  Mg0+  Mg10  1  0.75012670  0.25019189  0.75002510  0.25
  Mn0+  Mn11  1  0.75012670  0.25019189  0.75002510  0.75
  Mg0+  Mg12  1  -0.00012670  0.49980811  0.49997490  0.25
  Mn0+  Mn13  1  -0.00012670  0.49980811  0.49997490  0.75
  Mg0+  Mg14  1  0.75012670  0.75019189  0.25002510  0.25
  Mn0+  Mn15  1  0.75012670  0.75019189  0.25002510  0.75
  Mn0+  Mn16  1  0.37500000  0.87500000  0.12500000  0.25
  Fe0+  Fe17  1  0.37500000  0.87500000  0.12500000  0.75
  Mn0+  Mn18  1  0.37500000  0.62500000  0.37500000  0.25
  Fe0+  Fe19  1  0.37500000  0.62500000  0.37500000  0.75
  Mn0+  Mn20  1  0.12500000  0.87500000  0.37500000  0.25
  Fe0+  Fe21  1  0.12500000  0.87500000  0.37500000  0.75
  Mn0+  Mn22  1  0.12500000  0.62500000  0.12500000  0.25
  Fe0+  Fe23  1  0.12500000  0.62500000  0.12500000  0.75
  Mn0+  Mn24  1  0.37500000  0.37500000  0.62500000  0.25
  Fe0+  Fe25  1  0.37500000  0.37500000  0.62500000  0.75
  Mn0+  Mn26  1  0.37500000  0.12500000  0.87500000  0.25
  Fe0+  Fe27  1  0.37500000  0.12500000  0.87500000  0.75
  Mn0+  Mn28  1  0.12500000  0.37500000  0.87500000  0.25
  Fe0+  Fe29  1  0.12500000  0.37500000  0.87500000  0.75
  Mn0+  Mn30  1  0.12500000  0.12500000  0.62500000  0.25
  Fe0+  Fe31  1  0.12500000  0.12500000  0.62500000  0.75
  Mn0+  Mn32  1  0.87500000  0.87500000  0.62500000  0.25
  Fe0+  Fe33  1  0.87500000  0.87500000  0.62500000  0.75
  Mn0+  Mn34  1  0.87500000  0.62500000  0.87500000  0.25
  Fe0+  Fe35  1  0.87500000  0.62500000  0.87500000  0.75
  Mn0+  Mn36  1  0.62500000  0.87500000  0.87500000  0.25
  Fe0+  Fe37  1  0.62500000  0.87500000  0.87500000  0.75
  Mn0+  Mn38  1  0.62500000  0.62500000  0.62500000  0.25
  Fe0+  Fe39  1  0.62500000  0.62500000  0.62500000  0.75
  Mn0+  Mn40  1  0.87500000  0.37500000  0.12500000  0.25
  Fe0+  Fe41  1  0.87500000  0.37500000  0.12500000  0.75
  Mn0+  Mn42  1  0.87500000  0.12500000  0.37500000  0.25
  Fe0+  Fe43  1  0.87500000  0.12500000  0.37500000  0.75
  Mn0+  Mn44  1  0.62500000  0.37500000  0.37500000  0.25
  Fe0+  Fe45  1  0.62500000  0.37500000  0.37500000  0.75
  Mn0+  Mn46  1  0.62500000  0.12500000  0.12500000  0.25
  Fe0+  Fe47  1  0.62500000  0.12500000  0.12500000  0.75
  O0+  O48  1  0.11067139  0.38934488  0.11100217  1.0
  O0+  O49  1  0.63993311  0.13980550  0.35986229  1.0
  O0+  O50  1  0.36109926  0.86116535  0.36015636  1.0
  O0+  O51  1  0.85945336  0.13828887  0.14056179  1.0
  O0+  O52  1  0.38890074  0.38883464  0.38984363  1.0
  O0+  O53  1  0.39054664  0.11171113  0.10943821  1.0
  O0+  O54  1  0.13932861  0.86065512  0.13899783  1.0
  O0+  O55  1  0.11006688  0.11019450  0.39013772  1.0
  O0+  O56  1  0.11067139  0.88934488  0.61100217  1.0
  O0+  O57  1  0.63993311  0.63980550  0.85986229  1.0
  O0+  O58  1  0.36109926  0.36116535  0.86015636  1.0
  O0+  O59  1  0.85945337  0.63828887  0.64056179  1.0
  O0+  O60  1  0.38890074  0.88883464  0.88984363  1.0
  O0+  O61  1  0.39054664  0.61171113  0.60943821  1.0
  O0+  O62  1  0.13932861  0.36065512  0.63899783  1.0
  O0+  O63  1  0.11006689  0.61019450  0.89013771  1.0
  O0+  O64  1  0.61067139  0.38934488  0.61100217  1.0
  O0+  O65  1  0.13993312  0.13980550  0.85986229  1.0
  O0+  O66  1  0.86109926  0.86116535  0.86015636  1.0
  O0+  O67  1  0.35945337  0.13828887  0.64056179  1.0
  O0+  O68  1  0.88890074  0.38883464  0.88984364  1.0
  O0+  O69  1  0.89054663  0.11171113  0.60943821  1.0
  O0+  O70  1  0.63932861  0.86065512  0.63899783  1.0
  O0+  O71  1  0.61006689  0.11019450  0.89013771  1.0
  O0+  O72  1  0.61067139  0.88934488  0.11100217  1.0
  O0+  O73  1  0.13993311  0.63980550  0.35986228  1.0
  O0+  O74  1  0.86109926  0.36116535  0.36015636  1.0
  O0+  O75  1  0.35945337  0.63828887  0.14056179  1.0
  O0+  O76  1  0.88890074  0.88883464  0.38984363  1.0
  O0+  O77  1  0.89054663  0.61171113  0.10943821  1.0
  O0+  O78  1  0.63932861  0.36065512  0.13899783  1.0
  O0+  O79  1  0.61006689  0.61019450  0.39013771  1.0
