# generated using pymatgen
data_MgMn(FeO2)4
_symmetry_space_group_name_H-M   'P 1'
_cell_length_a   5.85401778
_cell_length_b   5.86181827
_cell_length_c   8.33207645
_cell_angle_alpha   90.31323071
_cell_angle_beta   89.78277599
_cell_angle_gamma   90.16797065
_symmetry_Int_Tables_number   1
_chemical_formula_structural   MgMn(FeO2)4
_chemical_formula_sum   'Mg2 Mn2 Fe8 O16'
_cell_volume   285.90923404
_cell_formula_units_Z   2
loop_
 _symmetry_equiv_pos_site_id
 _symmetry_equiv_pos_as_xyz
  1  'x, y, z'
loop_
 _atom_type_symbol
 _atom_type_oxidation_number
  Mg0+  0.0
  Mn0+  0.0
  Fe0+  0.0
  O0+  0.0
loop_
 _atom_site_type_symbol
 _atom_site_label
 _atom_site_symmetry_multiplicity
 _atom_site_fract_x
 _atom_site_fract_y
 _atom_site_fract_z
 _atom_site_occupancy
  Mg0+  Mg0  1  0.50004346  0.50021240  0.49998327  0.5
  Mn0+  Mn1  1  0.50004346  0.50021240  0.49998327  0.5
  Mg0+  Mg2  1  0.49995654  -0.00021240  0.75001673  0.5
  Mn0+  Mn3  1  0.49995654  -0.00021240  0.75001673  0.5
  Mg0+  Mg4  1  0.00004346  0.00021240  -0.00001673  0.5
  Mn0+  Mn5  1  0.00004346  0.00021240  -0.00001673  0.5
  Mg0+  Mg6  1  -0.00004346  0.49978760  0.25001673  0.5
  Mn0+  Mn7  1  -0.00004346  0.49978760  0.25001673  0.5
  Fe0+  Fe8  1  -0.00000000  0.25000000  0.62500000  1.0
  Fe0+  Fe9  1  -0.00000000  0.75000000  0.62500000  1.0
  Fe0+  Fe10  1  0.25000000  0.00000000  0.37500000  1.0
  Fe0+  Fe11  1  0.25000000  0.50000000  0.87500000  1.0
  Fe0+  Fe12  1  0.50000000  0.75000000  0.12500000  1.0
  Fe0+  Fe13  1  0.50000000  0.25000000  0.12500000  1.0
  Fe0+  Fe14  1  0.75000000  0.50000000  0.87500000  1.0
  Fe0+  Fe15  1  0.75000000  0.00000000  0.37500000  1.0
  O0+  O16  1  0.22404106  -0.00001085  0.61215257  1.0
  O0+  O17  1  0.22393305  0.50150518  0.63889007  1.0
  O0+  O18  1  -0.00004406  0.27533353  0.86158870  1.0
  O0+  O19  1  0.00008508  0.72333098  0.86139265  1.0
  O0+  O20  1  0.00004406  0.22466647  0.38841130  1.0
  O0+  O21  1  -0.00008508  0.77666902  0.38860735  1.0
  O0+  O22  1  0.77595894  0.50001085  0.63784743  1.0
  O0+  O23  1  0.77606695  -0.00150518  0.61110993  1.0
  O0+  O24  1  0.72404106  0.49998915  0.11215257  1.0
  O0+  O25  1  0.72393305  0.00150518  0.13889007  1.0
  O0+  O26  1  0.49995594  0.77533353  0.36158870  1.0
  O0+  O27  1  0.50008508  0.22333098  0.36139265  1.0
  O0+  O28  1  0.50004406  0.72466647  0.88841130  1.0
  O0+  O29  1  0.49991492  0.27666902  0.88860735  1.0
  O0+  O30  1  0.27595894  0.00001085  0.13784743  1.0
  O0+  O31  1  0.27606695  0.49849482  0.11110993  1.0
