# generated using pymatgen
data_MgMn3(FeO2)8
_symmetry_space_group_name_H-M   'P 1'
_cell_length_a   5.80671799
_cell_length_b   5.81842737
_cell_length_c   8.25176461
_cell_angle_alpha   90.47400880
_cell_angle_beta   89.67107316
_cell_angle_gamma   90.25414935
_symmetry_Int_Tables_number   1
_chemical_formula_structural   MgMn3(FeO2)8
_chemical_formula_sum   'Mg1 Mn3 Fe8 O16'
_cell_volume   278.77702688
_cell_formula_units_Z   1
loop_
 _symmetry_equiv_pos_site_id
 _symmetry_equiv_pos_as_xyz
  1  'x, y, z'
loop_
 _atom_type_symbol
 _atom_type_oxidation_number
  Mg0+  0.0
  Mn0+  0.0
  Fe0+  0.0
  O0+  0.0
loop_
 _atom_site_type_symbol
 _atom_site_label
 _atom_site_symmetry_multiplicity
 _atom_site_fract_x
 _atom_site_fract_y
 _atom_site_fract_z
 _atom_site_occupancy
  Mg0+  Mg0  1  0.50006519  0.50031859  0.49997490  0.25
  Mn0+  Mn1  1  0.50006519  0.50031859  0.49997490  0.75
  Mg0+  Mg2  1  0.49993480  -0.00031859  0.75002510  0.25
  Mn0+  Mn3  1  0.49993480  -0.00031859  0.75002510  0.75
  Mg0+  Mg4  1  0.00006519  0.00031859  -0.00002510  0.25
  Mn0+  Mn5  1  0.00006519  0.00031859  -0.00002510  0.75
  Mg0+  Mg6  1  -0.00006520  0.49968140  0.25002510  0.25
  Mn0+  Mn7  1  -0.00006520  0.49968140  0.25002510  0.75
  Fe0+  Fe8  1  -0.00000000  0.25000000  0.62500000  1.0
  Fe0+  Fe9  1  -0.00000000  0.75000000  0.62500000  1.0
  Fe0+  Fe10  1  0.25000000  0.00000000  0.37500000  1.0
  Fe0+  Fe11  1  0.25000000  0.50000000  0.87500000  1.0
  Fe0+  Fe12  1  0.50000000  0.75000000  0.12500000  1.0
  Fe0+  Fe13  1  0.50000000  0.25000000  0.12500000  1.0
  Fe0+  Fe14  1  0.75000000  0.50000000  0.87500000  1.0
  Fe0+  Fe15  1  0.75000000  0.00000000  0.37500000  1.0
  O0+  O16  1  0.22132651  -0.00001627  0.61100217  1.0
  O0+  O17  1  0.22116449  0.50225776  0.64056179  1.0
  O0+  O18  1  -0.00006609  0.27773539  0.86015636  1.0
  O0+  O19  1  0.00012761  0.72026139  0.85986229  1.0
  O0+  O20  1  0.00006609  0.22226461  0.38984363  1.0
  O0+  O21  1  -0.00012762  0.77973862  0.39013771  1.0
  O0+  O22  1  0.77867349  0.50001627  0.63899783  1.0
  O0+  O23  1  0.77883550  -0.00225776  0.60943821  1.0
  O0+  O24  1  0.72132651  0.49998373  0.11100217  1.0
  O0+  O25  1  0.72116449  0.00225776  0.14056179  1.0
  O0+  O26  1  0.49993390  0.77773539  0.36015636  1.0
  O0+  O27  1  0.50012761  0.22026139  0.35986228  1.0
  O0+  O28  1  0.50006609  0.72226461  0.88984363  1.0
  O0+  O29  1  0.49987239  0.27973862  0.89013771  1.0
  O0+  O30  1  0.27867349  0.00001627  0.13899783  1.0
  O0+  O31  1  0.27883550  0.49774224  0.10943821  1.0
