# generated using pymatgen
data_MgMn3(FeO4)2
_symmetry_space_group_name_H-M   'P 1'
_cell_length_a   8.35970093
_cell_length_b   8.33541476
_cell_length_c   8.36858798
_cell_angle_alpha   89.93217217
_cell_angle_beta   89.62764673
_cell_angle_gamma   89.92428297
_symmetry_Int_Tables_number   1
_chemical_formula_structural   MgMn3(FeO4)2
_chemical_formula_sum   'Mg4 Mn12 Fe8 O32'
_cell_volume   583.12316151
_cell_formula_units_Z   4
loop_
 _symmetry_equiv_pos_site_id
 _symmetry_equiv_pos_as_xyz
  1  'x, y, z'
loop_
 _atom_type_symbol
 _atom_type_oxidation_number
  Mg0+  0.0
  Mn0+  0.0
  Fe0+  0.0
  O0+  0.0
loop_
 _atom_site_type_symbol
 _atom_site_label
 _atom_site_symmetry_multiplicity
 _atom_site_fract_x
 _atom_site_fract_y
 _atom_site_fract_z
 _atom_site_occupancy
  Mg0+  Mg0  1  0.49991553  -0.00012793  0.49998327  0.5
  Mn0+  Mn1  1  0.49991553  -0.00012793  0.49998327  0.5
  Mg0+  Mg2  1  0.25008447  0.25012793  0.25001673  0.5
  Mn0+  Mn3  1  0.25008447  0.25012793  0.25001673  0.5
  Mg0+  Mg4  1  0.49991553  0.49987207  -0.00001673  0.5
  Mn0+  Mn5  1  0.49991553  0.49987207  -0.00001673  0.5
  Mg0+  Mg6  1  0.25008447  0.75012793  0.75001673  0.5
  Mn0+  Mn7  1  0.25008447  0.75012793  0.75001673  0.5
  Mg0+  Mg8  1  -0.00008447  -0.00012793  -0.00001673  0.5
  Mn0+  Mn9  1  -0.00008447  -0.00012793  -0.00001673  0.5
  Mg0+  Mg10  1  0.75008447  0.25012793  0.75001673  0.5
  Mn0+  Mn11  1  0.75008447  0.25012793  0.75001673  0.5
  Mg0+  Mg12  1  -0.00008447  0.49987207  0.49998327  0.5
  Mn0+  Mn13  1  -0.00008447  0.49987207  0.49998327  0.5
  Mg0+  Mg14  1  0.75008447  0.75012793  0.25001673  0.5
  Mn0+  Mn15  1  0.75008447  0.75012793  0.25001673  0.5
  Mn0+  Mn16  1  0.37500000  0.87500000  0.12500000  0.5
  Fe0+  Fe17  1  0.37500000  0.87500000  0.12500000  0.5
  Mn0+  Mn18  1  0.37500000  0.62500000  0.37500000  0.5
  Fe0+  Fe19  1  0.37500000  0.62500000  0.37500000  0.5
  Mn0+  Mn20  1  0.12500000  0.87500000  0.37500000  0.5
  Fe0+  Fe21  1  0.12500000  0.87500000  0.37500000  0.5
  Mn0+  Mn22  1  0.12500000  0.62500000  0.12500000  0.5
  Fe0+  Fe23  1  0.12500000  0.62500000  0.12500000  0.5
  Mn0+  Mn24  1  0.37500000  0.37500000  0.62500000  0.5
  Fe0+  Fe25  1  0.37500000  0.37500000  0.62500000  0.5
  Mn0+  Mn26  1  0.37500000  0.12500000  0.87500000  0.5
  Fe0+  Fe27  1  0.37500000  0.12500000  0.87500000  0.5
  Mn0+  Mn28  1  0.12500000  0.37500000  0.87500000  0.5
  Fe0+  Fe29  1  0.12500000  0.37500000  0.87500000  0.5
  Mn0+  Mn30  1  0.12500000  0.12500000  0.62500000  0.5
  Fe0+  Fe31  1  0.12500000  0.12500000  0.62500000  0.5
  Mn0+  Mn32  1  0.87500000  0.87500000  0.62500000  0.5
  Fe0+  Fe33  1  0.87500000  0.87500000  0.62500000  0.5
  Mn0+  Mn34  1  0.87500000  0.62500000  0.87500000  0.5
  Fe0+  Fe35  1  0.87500000  0.62500000  0.87500000  0.5
  Mn0+  Mn36  1  0.62500000  0.87500000  0.87500000  0.5
  Fe0+  Fe37  1  0.62500000  0.87500000  0.87500000  0.5
  Mn0+  Mn38  1  0.62500000  0.62500000  0.62500000  0.5
  Fe0+  Fe39  1  0.62500000  0.62500000  0.62500000  0.5
  Mn0+  Mn40  1  0.87500000  0.37500000  0.12500000  0.5
  Fe0+  Fe41  1  0.87500000  0.37500000  0.12500000  0.5
  Mn0+  Mn42  1  0.87500000  0.12500000  0.37500000  0.5
  Fe0+  Fe43  1  0.87500000  0.12500000  0.37500000  0.5
  Mn0+  Mn44  1  0.62500000  0.37500000  0.37500000  0.5
  Fe0+  Fe45  1  0.62500000  0.37500000  0.37500000  0.5
  Mn0+  Mn46  1  0.62500000  0.12500000  0.12500000  0.5
  Fe0+  Fe47  1  0.62500000  0.12500000  0.12500000  0.5
  O0+  O48  1  0.11194204  0.38806881  0.11216256  1.0
  O0+  O49  1  0.63846097  0.13837589  0.36140263  1.0
  O0+  O50  1  0.36222728  0.86227135  0.36159869  1.0
  O0+  O51  1  0.86113002  0.13736480  0.13888009  1.0
  O0+  O52  1  0.38777272  0.38772865  0.38840131  1.0
  O0+  O53  1  0.38886998  0.11263520  0.11111991  1.0
  O0+  O54  1  0.13805796  0.86193119  0.13783744  1.0
  O0+  O55  1  0.11153903  0.11162411  0.38859737  1.0
  O0+  O56  1  0.11194204  0.88806881  0.61216256  1.0
  O0+  O57  1  0.63846097  0.63837589  0.86140263  1.0
  O0+  O58  1  0.36222728  0.36227135  0.86159869  1.0
  O0+  O59  1  0.86113002  0.63736480  0.63888009  1.0
  O0+  O60  1  0.38777272  0.88772865  0.88840131  1.0
  O0+  O61  1  0.38886998  0.61263520  0.61111991  1.0
  O0+  O62  1  0.13805796  0.36193119  0.63783744  1.0
  O0+  O63  1  0.11153903  0.61162411  0.88859737  1.0
  O0+  O64  1  0.61194204  0.38806881  0.61216256  1.0
  O0+  O65  1  0.13846097  0.13837589  0.86140263  1.0
  O0+  O66  1  0.86222728  0.86227135  0.86159869  1.0
  O0+  O67  1  0.36113002  0.13736480  0.63888009  1.0
  O0+  O68  1  0.88777272  0.38772865  0.88840131  1.0
  O0+  O69  1  0.88886998  0.11263520  0.61111991  1.0
  O0+  O70  1  0.63805796  0.86193119  0.63783744  1.0
  O0+  O71  1  0.61153903  0.11162411  0.88859737  1.0
  O0+  O72  1  0.61194204  0.88806881  0.11216256  1.0
  O0+  O73  1  0.13846097  0.63837589  0.36140263  1.0
  O0+  O74  1  0.86222728  0.36227135  0.36159869  1.0
  O0+  O75  1  0.36113002  0.63736480  0.13888009  1.0
  O0+  O76  1  0.88777272  0.88772865  0.38840131  1.0
  O0+  O77  1  0.88886998  0.61263520  0.11111991  1.0
  O0+  O78  1  0.63805796  0.36193119  0.13783744  1.0
  O0+  O79  1  0.61153903  0.61162411  0.38859737  1.0
