# generated using pymatgen
data_MgMn2Fe3O8
_symmetry_space_group_name_H-M   'P 1'
_cell_length_a   8.54952720
_cell_length_b   8.54952720
_cell_length_c   8.54952720
_cell_angle_alpha   90.00000000
_cell_angle_beta   90.00000000
_cell_angle_gamma   90.00000000
_symmetry_Int_Tables_number   1
_chemical_formula_structural   MgMn2Fe3O8
_chemical_formula_sum   'Mg4 Mn8 Fe12 O32'
_cell_volume   624.92269142
_cell_formula_units_Z   4
loop_
 _symmetry_equiv_pos_site_id
 _symmetry_equiv_pos_as_xyz
  1  'x, y, z'
loop_
 _atom_type_symbol
 _atom_type_oxidation_number
  Mg0+  0.0
  Mn0+  0.0
  Fe0+  0.0
  O0+  0.0
loop_
 _atom_site_type_symbol
 _atom_site_label
 _atom_site_symmetry_multiplicity
 _atom_site_fract_x
 _atom_site_fract_y
 _atom_site_fract_z
 _atom_site_occupancy
  Mg0+  Mg0  1  0.50000000  0.00000000  0.50000000  0.5
  Fe0+  Fe1  1  0.50000000  0.00000000  0.50000000  0.5
  Mg0+  Mg2  1  0.75000000  0.75000000  0.25000000  0.5
  Fe0+  Fe3  1  0.75000000  0.75000000  0.25000000  0.5
  Mg0+  Mg4  1  0.50000000  0.50000000  0.00000000  0.5
  Fe0+  Fe5  1  0.50000000  0.50000000  0.00000000  0.5
  Mg0+  Mg6  1  0.75000000  0.25000000  0.75000000  0.5
  Fe0+  Fe7  1  0.75000000  0.25000000  0.75000000  0.5
  Mg0+  Mg8  1  0.00000000  0.00000000  0.00000000  0.5
  Fe0+  Fe9  1  0.00000000  0.00000000  0.00000000  0.5
  Mg0+  Mg10  1  0.25000000  0.75000000  0.75000000  0.5
  Fe0+  Fe11  1  0.25000000  0.75000000  0.75000000  0.5
  Mg0+  Mg12  1  0.00000000  0.50000000  0.50000000  0.5
  Fe0+  Fe13  1  0.00000000  0.50000000  0.50000000  0.5
  Mg0+  Mg14  1  0.25000000  0.25000000  0.25000000  0.5
  Fe0+  Fe15  1  0.25000000  0.25000000  0.25000000  0.5
  Mn0+  Mn16  1  0.87500000  0.87500000  0.62500000  0.5
  Fe0+  Fe17  1  0.87500000  0.87500000  0.62500000  0.5
  Mn0+  Mn18  1  0.12500000  0.62500000  0.12500000  0.5
  Fe0+  Fe19  1  0.12500000  0.62500000  0.12500000  0.5
  Mn0+  Mn20  1  0.12500000  0.87500000  0.37500000  0.5
  Fe0+  Fe21  1  0.12500000  0.87500000  0.37500000  0.5
  Mn0+  Mn22  1  0.37500000  0.62500000  0.37500000  0.5
  Fe0+  Fe23  1  0.37500000  0.62500000  0.37500000  0.5
  Mn0+  Mn24  1  0.87500000  0.37500000  0.12500000  0.5
  Fe0+  Fe25  1  0.87500000  0.37500000  0.12500000  0.5
  Mn0+  Mn26  1  0.12500000  0.12500000  0.62500000  0.5
  Fe0+  Fe27  1  0.12500000  0.12500000  0.62500000  0.5
  Mn0+  Mn28  1  0.12500000  0.37500000  0.87500000  0.5
  Fe0+  Fe29  1  0.12500000  0.37500000  0.87500000  0.5
  Mn0+  Mn30  1  0.37500000  0.12500000  0.87500000  0.5
  Fe0+  Fe31  1  0.37500000  0.12500000  0.87500000  0.5
  Mn0+  Mn32  1  0.37500000  0.87500000  0.12500000  0.5
  Fe0+  Fe33  1  0.37500000  0.87500000  0.12500000  0.5
  Mn0+  Mn34  1  0.62500000  0.62500000  0.62500000  0.5
  Fe0+  Fe35  1  0.62500000  0.62500000  0.62500000  0.5
  Mn0+  Mn36  1  0.62500000  0.87500000  0.87500000  0.5
  Fe0+  Fe37  1  0.62500000  0.87500000  0.87500000  0.5
  Mn0+  Mn38  1  0.87500000  0.62500000  0.87500000  0.5
  Fe0+  Fe39  1  0.87500000  0.62500000  0.87500000  0.5
  Mn0+  Mn40  1  0.37500000  0.37500000  0.62500000  0.5
  Fe0+  Fe41  1  0.37500000  0.37500000  0.62500000  0.5
  Mn0+  Mn42  1  0.62500000  0.12500000  0.12500000  0.5
  Fe0+  Fe43  1  0.62500000  0.12500000  0.12500000  0.5
  Mn0+  Mn44  1  0.62500000  0.37500000  0.37500000  0.5
  Fe0+  Fe45  1  0.62500000  0.37500000  0.37500000  0.5
  Mn0+  Mn46  1  0.87500000  0.12500000  0.37500000  0.5
  Fe0+  Fe47  1  0.87500000  0.12500000  0.37500000  0.5
  O0+  O48  1  0.13412787  0.86587213  0.13412787  1.0
  O0+  O49  1  0.11587213  0.11587213  0.38412787  1.0
  O0+  O50  1  0.88412787  0.88412787  0.38412787  1.0
  O0+  O51  1  0.13412787  0.63412787  0.36587213  1.0
  O0+  O52  1  0.88412787  0.11587213  0.61587213  1.0
  O0+  O53  1  0.36587213  0.86587213  0.36587213  1.0
  O0+  O54  1  0.11587213  0.88412787  0.61587213  1.0
  O0+  O55  1  0.36587213  0.63412787  0.13412787  1.0
  O0+  O56  1  0.13412787  0.36587213  0.63412787  1.0
  O0+  O57  1  0.11587213  0.61587213  0.88412787  1.0
  O0+  O58  1  0.88412787  0.38412787  0.88412787  1.0
  O0+  O59  1  0.13412787  0.13412787  0.86587213  1.0
  O0+  O60  1  0.88412787  0.61587213  0.11587213  1.0
  O0+  O61  1  0.36587213  0.36587213  0.86587213  1.0
  O0+  O62  1  0.11587213  0.38412787  0.11587213  1.0
  O0+  O63  1  0.36587213  0.13412787  0.63412787  1.0
  O0+  O64  1  0.63412787  0.86587213  0.63412787  1.0
  O0+  O65  1  0.61587213  0.11587213  0.88412787  1.0
  O0+  O66  1  0.38412787  0.88412787  0.88412787  1.0
  O0+  O67  1  0.63412787  0.63412787  0.86587213  1.0
  O0+  O68  1  0.38412787  0.11587213  0.11587213  1.0
  O0+  O69  1  0.86587213  0.86587213  0.86587213  1.0
  O0+  O70  1  0.61587213  0.88412787  0.11587213  1.0
  O0+  O71  1  0.86587213  0.63412787  0.63412787  1.0
  O0+  O72  1  0.63412787  0.36587213  0.13412787  1.0
  O0+  O73  1  0.61587213  0.61587213  0.38412787  1.0
  O0+  O74  1  0.38412787  0.38412787  0.38412787  1.0
  O0+  O75  1  0.63412787  0.13412787  0.36587213  1.0
  O0+  O76  1  0.38412787  0.61587213  0.61587213  1.0
  O0+  O77  1  0.86587213  0.36587213  0.36587213  1.0
  O0+  O78  1  0.61587213  0.38412787  0.61587213  1.0
  O0+  O79  1  0.86587213  0.13412787  0.13412787  1.0
