# generated using pymatgen
data_Mn3FeO6
_symmetry_space_group_name_H-M   'P 1'
_cell_length_a   9.42082994
_cell_length_b   9.42082994
_cell_length_c   9.42082994
_cell_angle_alpha   90.00000000
_cell_angle_beta   90.00000000
_cell_angle_gamma   90.00000000
_symmetry_Int_Tables_number   1
_chemical_formula_structural   Mn3FeO6
_chemical_formula_sum   'Mn24 Fe8 O48'
_cell_volume   836.11784513
_cell_formula_units_Z   8
loop_
 _symmetry_equiv_pos_site_id
 _symmetry_equiv_pos_as_xyz
  1  'x, y, z'
loop_
 _atom_type_symbol
 _atom_type_oxidation_number
  Mn0+  0.0
  Fe0+  0.0
  O0+  0.0
loop_
 _atom_site_type_symbol
 _atom_site_label
 _atom_site_symmetry_multiplicity
 _atom_site_fract_x
 _atom_site_fract_y
 _atom_site_fract_z
 _atom_site_occupancy
  Mn0+  Mn0  1  0.46517999  0.50000000  0.75000000  0.75
  Fe0+  Fe1  1  0.46517999  0.50000000  0.75000000  0.25
  Mn0+  Mn2  1  0.50000000  0.25000000  0.03482001  0.75
  Fe0+  Fe3  1  0.50000000  0.25000000  0.03482001  0.25
  Mn0+  Mn4  1  0.03482001  0.00000000  0.75000000  0.75
  Fe0+  Fe5  1  0.03482001  0.00000000  0.75000000  0.25
  Mn0+  Mn6  1  0.75000000  0.03482001  0.00000000  0.75
  Fe0+  Fe7  1  0.75000000  0.03482001  0.00000000  0.25
  Mn0+  Mn8  1  0.46517999  0.00000000  0.25000000  0.75
  Fe0+  Fe9  1  0.46517999  0.00000000  0.25000000  0.25
  Mn0+  Mn10  1  0.75000000  0.46517999  0.50000000  0.75
  Fe0+  Fe11  1  0.75000000  0.46517999  0.50000000  0.25
  Mn0+  Mn12  1  0.25000000  0.03482001  0.50000000  0.75
  Fe0+  Fe13  1  0.25000000  0.03482001  0.50000000  0.25
  Mn0+  Mn14  1  0.25000000  0.46517999  0.00000000  0.75
  Fe0+  Fe15  1  0.25000000  0.46517999  0.00000000  0.25
  Mn0+  Mn16  1  0.25000000  0.25000000  0.75000000  0.75
  Fe0+  Fe17  1  0.25000000  0.25000000  0.75000000  0.25
  Mn0+  Mn18  1  0.03482001  0.50000000  0.25000000  0.75
  Fe0+  Fe19  1  0.03482001  0.50000000  0.25000000  0.25
  Mn0+  Mn20  1  0.50000000  0.75000000  0.46517999  0.75
  Fe0+  Fe21  1  0.50000000  0.75000000  0.46517999  0.25
  Mn0+  Mn22  1  0.00000000  0.75000000  0.03482001  0.75
  Fe0+  Fe23  1  0.00000000  0.75000000  0.03482001  0.25
  Mn0+  Mn24  1  0.00000000  0.25000000  0.46517999  0.75
  Fe0+  Fe25  1  0.00000000  0.25000000  0.46517999  0.25
  Mn0+  Mn26  1  0.75000000  0.25000000  0.25000000  0.75
  Fe0+  Fe27  1  0.75000000  0.25000000  0.25000000  0.25
  Mn0+  Mn28  1  0.25000000  0.25000000  0.25000000  0.75
  Fe0+  Fe29  1  0.25000000  0.25000000  0.25000000  0.25
  Mn0+  Mn30  1  0.25000000  0.75000000  0.25000000  0.75
  Fe0+  Fe31  1  0.25000000  0.75000000  0.25000000  0.25
  Mn0+  Mn32  1  0.96517999  0.00000000  0.25000000  0.75
  Fe0+  Fe33  1  0.96517999  0.00000000  0.25000000  0.25
  Mn0+  Mn34  1  0.00000000  0.75000000  0.53482001  0.75
  Fe0+  Fe35  1  0.00000000  0.75000000  0.53482001  0.25
  Mn0+  Mn36  1  0.53482001  0.50000000  0.25000000  0.75
  Fe0+  Fe37  1  0.53482001  0.50000000  0.25000000  0.25
  Mn0+  Mn38  1  0.25000000  0.53482001  0.50000000  0.75
  Fe0+  Fe39  1  0.25000000  0.53482001  0.50000000  0.25
  Mn0+  Mn40  1  0.96517999  0.50000000  0.75000000  0.75
  Fe0+  Fe41  1  0.96517999  0.50000000  0.75000000  0.25
  Mn0+  Mn42  1  0.25000000  0.96517999  0.00000000  0.75
  Fe0+  Fe43  1  0.25000000  0.96517999  0.00000000  0.25
  Mn0+  Mn44  1  0.75000000  0.53482001  0.00000000  0.75
  Fe0+  Fe45  1  0.75000000  0.53482001  0.00000000  0.25
  Mn0+  Mn46  1  0.75000000  0.96517999  0.50000000  0.75
  Fe0+  Fe47  1  0.75000000  0.96517999  0.50000000  0.25
  Mn0+  Mn48  1  0.75000000  0.75000000  0.25000000  0.75
  Fe0+  Fe49  1  0.75000000  0.75000000  0.25000000  0.25
  Mn0+  Mn50  1  0.53482001  0.00000000  0.75000000  0.75
  Fe0+  Fe51  1  0.53482001  0.00000000  0.75000000  0.25
  Mn0+  Mn52  1  0.00000000  0.25000000  0.96517999  0.75
  Fe0+  Fe53  1  0.00000000  0.25000000  0.96517999  0.25
  Mn0+  Mn54  1  0.50000000  0.25000000  0.53482001  0.75
  Fe0+  Fe55  1  0.50000000  0.25000000  0.53482001  0.25
  Mn0+  Mn56  1  0.50000000  0.75000000  0.96517999  0.75
  Fe0+  Fe57  1  0.50000000  0.75000000  0.96517999  0.25
  Mn0+  Mn58  1  0.25000000  0.75000000  0.75000000  0.75
  Fe0+  Fe59  1  0.25000000  0.75000000  0.75000000  0.25
  Mn0+  Mn60  1  0.75000000  0.75000000  0.75000000  0.75
  Fe0+  Fe61  1  0.75000000  0.75000000  0.75000000  0.25
  Mn0+  Mn62  1  0.75000000  0.25000000  0.75000000  0.75
  Fe0+  Fe63  1  0.75000000  0.25000000  0.75000000  0.25
  O0+  O64  1  0.87839564  0.16672604  0.10541472  1.0
  O0+  O65  1  0.60541472  0.12160436  0.16672604  1.0
  O0+  O66  1  0.16672604  0.60541472  0.12160436  1.0
  O0+  O67  1  0.10541472  0.87839564  0.16672604  1.0
  O0+  O68  1  0.16672604  0.89458528  0.62160436  1.0
  O0+  O69  1  0.16672604  0.10541472  0.87839564  1.0
  O0+  O70  1  0.33327396  0.10541472  0.12160436  1.0
  O0+  O71  1  0.39458528  0.37839564  0.16672604  1.0
  O0+  O72  1  0.33327396  0.60541472  0.87839564  1.0
  O0+  O73  1  0.60541472  0.87839564  0.33327396  1.0
  O0+  O74  1  0.37839564  0.16672604  0.39458528  1.0
  O0+  O75  1  0.87839564  0.33327396  0.60541472  1.0
  O0+  O76  1  0.39458528  0.62160436  0.33327396  1.0
  O0+  O77  1  0.62160436  0.16672604  0.89458528  1.0
  O0+  O78  1  0.89458528  0.37839564  0.33327396  1.0
  O0+  O79  1  0.16672604  0.39458528  0.37839564  1.0
  O0+  O80  1  0.10541472  0.12160436  0.33327396  1.0
  O0+  O81  1  0.89458528  0.62160436  0.16672604  1.0
  O0+  O82  1  0.12160436  0.33327396  0.10541472  1.0
  O0+  O83  1  0.12160436  0.16672604  0.60541472  1.0
  O0+  O84  1  0.33327396  0.39458528  0.62160436  1.0
  O0+  O85  1  0.37839564  0.33327396  0.89458528  1.0
  O0+  O86  1  0.62160436  0.33327396  0.39458528  1.0
  O0+  O87  1  0.33327396  0.89458528  0.37839564  1.0
  O0+  O88  1  0.37839564  0.66672604  0.60541472  1.0
  O0+  O89  1  0.10541472  0.62160436  0.66672604  1.0
  O0+  O90  1  0.66672604  0.10541472  0.62160436  1.0
  O0+  O91  1  0.60541472  0.37839564  0.66672604  1.0
  O0+  O92  1  0.66672604  0.39458528  0.12160436  1.0
  O0+  O93  1  0.66672604  0.60541472  0.37839564  1.0
  O0+  O94  1  0.83327396  0.60541472  0.62160436  1.0
  O0+  O95  1  0.89458528  0.87839564  0.66672604  1.0
  O0+  O96  1  0.83327396  0.10541472  0.37839564  1.0
  O0+  O97  1  0.10541472  0.37839564  0.83327396  1.0
  O0+  O98  1  0.87839564  0.66672604  0.89458528  1.0
  O0+  O99  1  0.37839564  0.83327396  0.10541472  1.0
  O0+  O100  1  0.89458528  0.12160436  0.83327396  1.0
  O0+  O101  1  0.12160436  0.66672604  0.39458528  1.0
  O0+  O102  1  0.39458528  0.87839564  0.83327396  1.0
  O0+  O103  1  0.66672604  0.89458528  0.87839564  1.0
  O0+  O104  1  0.60541472  0.62160436  0.83327396  1.0
  O0+  O105  1  0.39458528  0.12160436  0.66672604  1.0
  O0+  O106  1  0.62160436  0.83327396  0.60541472  1.0
  O0+  O107  1  0.62160436  0.66672604  0.10541472  1.0
  O0+  O108  1  0.83327396  0.89458528  0.12160436  1.0
  O0+  O109  1  0.87839564  0.83327396  0.39458528  1.0
  O0+  O110  1  0.12160436  0.83327396  0.89458528  1.0
  O0+  O111  1  0.83327396  0.39458528  0.87839564  1.0
