# generated using pymatgen
data_Mn3Fe9O16
_symmetry_space_group_name_H-M   'P 1'
_cell_length_a   8.25176461
_cell_length_b   8.20197172
_cell_length_c   8.23843442
_cell_angle_alpha   89.88457703
_cell_angle_beta   90.56661316
_cell_angle_gamma   90.10338732
_symmetry_Int_Tables_number   1
_chemical_formula_structural   Mn3Fe9O16
_chemical_formula_sum   'Mn6 Fe18 O32'
_cell_volume   557.55405377
_cell_formula_units_Z   2
loop_
 _symmetry_equiv_pos_site_id
 _symmetry_equiv_pos_as_xyz
  1  'x, y, z'
loop_
 _atom_type_symbol
 _atom_type_oxidation_number
  Mn0+  0.0
  Fe0+  0.0
  O0+  0.0
loop_
 _atom_site_type_symbol
 _atom_site_label
 _atom_site_symmetry_multiplicity
 _atom_site_fract_x
 _atom_site_fract_y
 _atom_site_fract_z
 _atom_site_occupancy
  Mn0+  Mn0  1  0.49997490  0.00019189  0.50012670  0.75
  Fe0+  Fe1  1  0.49997490  0.00019189  0.50012670  0.25
  Mn0+  Mn2  1  0.75002510  0.74980810  0.24987330  0.75
  Fe0+  Fe3  1  0.75002510  0.74980810  0.24987330  0.25
  Mn0+  Mn4  1  0.49997490  0.50019189  0.00012670  0.75
  Fe0+  Fe5  1  0.49997490  0.50019189  0.00012670  0.25
  Mn0+  Mn6  1  0.75002510  0.24980811  0.74987330  0.75
  Fe0+  Fe7  1  0.75002510  0.24980811  0.74987330  0.25
  Mn0+  Mn8  1  -0.00002510  0.00019189  0.00012670  0.75
  Fe0+  Fe9  1  -0.00002510  0.00019189  0.00012670  0.25
  Mn0+  Mn10  1  0.25002509  0.74980810  0.74987330  0.75
  Fe0+  Fe11  1  0.25002509  0.74980810  0.74987330  0.25
  Mn0+  Mn12  1  -0.00002510  0.50019189  0.50012670  0.75
  Fe0+  Fe13  1  -0.00002510  0.50019189  0.50012670  0.25
  Mn0+  Mn14  1  0.25002510  0.24980810  0.24987330  0.75
  Fe0+  Fe15  1  0.25002510  0.24980810  0.24987330  0.25
  Fe0+  Fe16  1  0.87500000  0.87500000  0.62500000  1.0
  Fe0+  Fe17  1  0.12500000  0.62500000  0.12500000  1.0
  Fe0+  Fe18  1  0.12500000  0.87500000  0.37500000  1.0
  Fe0+  Fe19  1  0.37500000  0.62500000  0.37500000  1.0
  Fe0+  Fe20  1  0.87500000  0.37500000  0.12500000  1.0
  Fe0+  Fe21  1  0.12500000  0.12500000  0.62500000  1.0
  Fe0+  Fe22  1  0.12500000  0.37500000  0.87500000  1.0
  Fe0+  Fe23  1  0.37500000  0.12500000  0.87500000  1.0
  Fe0+  Fe24  1  0.37500000  0.87500000  0.12500000  1.0
  Fe0+  Fe25  1  0.62500000  0.62500000  0.62500000  1.0
  Fe0+  Fe26  1  0.62500000  0.87500000  0.87500000  1.0
  Fe0+  Fe27  1  0.87500000  0.62500000  0.87500000  1.0
  Fe0+  Fe28  1  0.37500000  0.37500000  0.62500000  1.0
  Fe0+  Fe29  1  0.62500000  0.12500000  0.12500000  1.0
  Fe0+  Fe30  1  0.62500000  0.37500000  0.37500000  1.0
  Fe0+  Fe31  1  0.87500000  0.12500000  0.37500000  1.0
  O0+  O32  1  0.14056179  0.86171113  0.14054663  1.0
  O0+  O33  1  0.11100217  0.11065512  0.38932861  1.0
  O0+  O34  1  0.89013771  0.88980550  0.38993312  1.0
  O0+  O35  1  0.13899783  0.63934488  0.36067139  1.0
  O0+  O36  1  0.88984364  0.11116535  0.61109926  1.0
  O0+  O37  1  0.35986229  0.86019450  0.36006689  1.0
  O0+  O38  1  0.10943821  0.88828887  0.60945337  1.0
  O0+  O39  1  0.36015636  0.63883464  0.13890074  1.0
  O0+  O40  1  0.14056179  0.36171113  0.64054663  1.0
  O0+  O41  1  0.11100217  0.61065512  0.88932861  1.0
  O0+  O42  1  0.89013771  0.38980550  0.88993311  1.0
  O0+  O43  1  0.13899783  0.13934488  0.86067139  1.0
  O0+  O44  1  0.88984364  0.61116535  0.11109926  1.0
  O0+  O45  1  0.35986229  0.36019450  0.86006689  1.0
  O0+  O46  1  0.10943821  0.38828887  0.10945337  1.0
  O0+  O47  1  0.36015636  0.13883464  0.63890074  1.0
  O0+  O48  1  0.64056179  0.86171113  0.64054663  1.0
  O0+  O49  1  0.61100217  0.11065512  0.88932861  1.0
  O0+  O50  1  0.39013771  0.88980550  0.88993312  1.0
  O0+  O51  1  0.63899783  0.63934488  0.86067139  1.0
  O0+  O52  1  0.38984364  0.11116535  0.11109926  1.0
  O0+  O53  1  0.85986229  0.86019450  0.86006689  1.0
  O0+  O54  1  0.60943821  0.88828887  0.10945336  1.0
  O0+  O55  1  0.86015637  0.63883464  0.63890074  1.0
  O0+  O56  1  0.64056179  0.36171113  0.14054663  1.0
  O0+  O57  1  0.61100217  0.61065512  0.38932861  1.0
  O0+  O58  1  0.39013771  0.38980550  0.38993311  1.0
  O0+  O59  1  0.63899783  0.13934488  0.36067139  1.0
  O0+  O60  1  0.38984364  0.61116535  0.61109926  1.0
  O0+  O61  1  0.85986229  0.36019450  0.36006689  1.0
  O0+  O62  1  0.60943821  0.38828887  0.60945337  1.0
  O0+  O63  1  0.86015636  0.13883464  0.13890074  1.0
