# generated using pymatgen
data_MnFe11O16
_symmetry_space_group_name_H-M   'P 1'
_cell_length_a   8.37987797
_cell_length_b   8.36330195
_cell_length_c   8.37543434
_cell_angle_alpha   89.96226769
_cell_angle_beta   90.18587054
_cell_angle_gamma   90.03380379
_symmetry_Int_Tables_number   1
_chemical_formula_structural   MnFe11O16
_chemical_formula_sum   'Mn2 Fe22 O32'
_cell_volume   586.97601493
_cell_formula_units_Z   2
loop_
 _symmetry_equiv_pos_site_id
 _symmetry_equiv_pos_as_xyz
  1  'x, y, z'
loop_
 _atom_type_symbol
 _atom_type_oxidation_number
  Mn0+  0.0
  Fe0+  0.0
  O0+  0.0
loop_
 _atom_site_type_symbol
 _atom_site_label
 _atom_site_symmetry_multiplicity
 _atom_site_fract_x
 _atom_site_fract_y
 _atom_site_fract_z
 _atom_site_occupancy
  Mn0+  Mn0  1  0.49999163  0.00006396  0.50004223  0.25
  Fe0+  Fe1  1  0.49999163  0.00006396  0.50004223  0.75
  Mn0+  Mn2  1  0.75000837  0.74993603  0.24995777  0.25
  Fe0+  Fe3  1  0.75000837  0.74993603  0.24995777  0.75
  Mn0+  Mn4  1  0.49999163  0.50006396  0.00004223  0.25
  Fe0+  Fe5  1  0.49999163  0.50006396  0.00004223  0.75
  Mn0+  Mn6  1  0.75000837  0.24993604  0.74995777  0.25
  Fe0+  Fe7  1  0.75000837  0.24993604  0.74995777  0.75
  Mn0+  Mn8  1  -0.00000837  0.00006396  0.00004223  0.25
  Fe0+  Fe9  1  -0.00000837  0.00006396  0.00004223  0.75
  Mn0+  Mn10  1  0.25000836  0.74993603  0.74995777  0.25
  Fe0+  Fe11  1  0.25000836  0.74993603  0.74995777  0.75
  Mn0+  Mn12  1  -0.00000837  0.50006396  0.50004223  0.25
  Fe0+  Fe13  1  -0.00000837  0.50006396  0.50004223  0.75
  Mn0+  Mn14  1  0.25000837  0.24993603  0.24995777  0.25
  Fe0+  Fe15  1  0.25000837  0.24993603  0.24995777  0.75
  Fe0+  Fe16  1  0.87500000  0.87500000  0.62500000  1.0
  Fe0+  Fe17  1  0.12500000  0.62500000  0.12500000  1.0
  Fe0+  Fe18  1  0.12500000  0.87500000  0.37500000  1.0
  Fe0+  Fe19  1  0.37500000  0.62500000  0.37500000  1.0
  Fe0+  Fe20  1  0.87500000  0.37500000  0.12500000  1.0
  Fe0+  Fe21  1  0.12500000  0.12500000  0.62500000  1.0
  Fe0+  Fe22  1  0.12500000  0.37500000  0.87500000  1.0
  Fe0+  Fe23  1  0.37500000  0.12500000  0.87500000  1.0
  Fe0+  Fe24  1  0.37500000  0.87500000  0.12500000  1.0
  Fe0+  Fe25  1  0.62500000  0.62500000  0.62500000  1.0
  Fe0+  Fe26  1  0.62500000  0.87500000  0.87500000  1.0
  Fe0+  Fe27  1  0.87500000  0.62500000  0.87500000  1.0
  Fe0+  Fe28  1  0.37500000  0.37500000  0.62500000  1.0
  Fe0+  Fe29  1  0.62500000  0.12500000  0.12500000  1.0
  Fe0+  Fe30  1  0.62500000  0.37500000  0.37500000  1.0
  Fe0+  Fe31  1  0.87500000  0.12500000  0.37500000  1.0
  O0+  O32  1  0.13442078  0.86633686  0.13441573  1.0
  O0+  O33  1  0.11610054  0.11598485  0.38400972  1.0
  O0+  O34  1  0.88427943  0.88416869  0.38421122  1.0
  O0+  O35  1  0.13389946  0.63401515  0.36599028  1.0
  O0+  O36  1  0.88418140  0.11615493  0.61613290  1.0
  O0+  O37  1  0.36572057  0.86583131  0.36578878  1.0
  O0+  O38  1  0.11557921  0.88366314  0.61558427  1.0
  O0+  O39  1  0.36581860  0.63384507  0.13386710  1.0
  O0+  O40  1  0.13442079  0.36633686  0.63441573  1.0
  O0+  O41  1  0.11610054  0.61598485  0.88400972  1.0
  O0+  O42  1  0.88427943  0.38416869  0.88421123  1.0
  O0+  O43  1  0.13389946  0.13401515  0.86599028  1.0
  O0+  O44  1  0.88418140  0.61615493  0.11613290  1.0
  O0+  O45  1  0.36572057  0.36583131  0.86578877  1.0
  O0+  O46  1  0.11557921  0.38366314  0.11558427  1.0
  O0+  O47  1  0.36581860  0.13384507  0.63386710  1.0
  O0+  O48  1  0.63442078  0.86633686  0.63441573  1.0
  O0+  O49  1  0.61610054  0.11598485  0.88400972  1.0
  O0+  O50  1  0.38427942  0.88416869  0.88421123  1.0
  O0+  O51  1  0.63389946  0.63401515  0.86599028  1.0
  O0+  O52  1  0.38418140  0.11615493  0.11613290  1.0
  O0+  O53  1  0.86572057  0.86583131  0.86578877  1.0
  O0+  O54  1  0.61557922  0.88366314  0.11558427  1.0
  O0+  O55  1  0.86581860  0.63384507  0.63386710  1.0
  O0+  O56  1  0.63442078  0.36633686  0.13441573  1.0
  O0+  O57  1  0.61610054  0.61598485  0.38400972  1.0
  O0+  O58  1  0.38427942  0.38416869  0.38421122  1.0
  O0+  O59  1  0.63389946  0.13401515  0.36599028  1.0
  O0+  O60  1  0.38418140  0.61615493  0.61613290  1.0
  O0+  O61  1  0.86572057  0.36583131  0.36578878  1.0
  O0+  O62  1  0.61557922  0.38366314  0.61558427  1.0
  O0+  O63  1  0.86581860  0.13384507  0.13386710  1.0
