# generated using pymatgen
data_MnFe5O8
_symmetry_space_group_name_H-M   'P 1'
_cell_length_a   8.31580947
_cell_length_b   8.28263598
_cell_length_c   8.30692242
_cell_angle_alpha   89.92380048
_cell_angle_beta   90.37471792
_cell_angle_gamma   90.06825996
_symmetry_Int_Tables_number   1
_chemical_formula_structural   MnFe5O8
_chemical_formula_sum   'Mn4 Fe20 O32'
_cell_volume   572.14128061
_cell_formula_units_Z   4
loop_
 _symmetry_equiv_pos_site_id
 _symmetry_equiv_pos_as_xyz
  1  'x, y, z'
loop_
 _atom_type_symbol
 _atom_type_oxidation_number
  Mn0+  0.0
  Fe0+  0.0
  O0+  0.0
loop_
 _atom_site_type_symbol
 _atom_site_label
 _atom_site_symmetry_multiplicity
 _atom_site_fract_x
 _atom_site_fract_y
 _atom_site_fract_z
 _atom_site_occupancy
  Mn0+  Mn0  1  0.49998327  0.00012793  0.50008447  0.5
  Fe0+  Fe1  1  0.49998327  0.00012793  0.50008447  0.5
  Mn0+  Mn2  1  0.75001673  0.74987207  0.24991553  0.5
  Fe0+  Fe3  1  0.75001673  0.74987207  0.24991553  0.5
  Mn0+  Mn4  1  0.49998327  0.50012793  0.00008447  0.5
  Fe0+  Fe5  1  0.49998327  0.50012793  0.00008447  0.5
  Mn0+  Mn6  1  0.75001673  0.24987207  0.74991553  0.5
  Fe0+  Fe7  1  0.75001673  0.24987207  0.74991553  0.5
  Mn0+  Mn8  1  -0.00001673  0.00012793  0.00008447  0.5
  Fe0+  Fe9  1  -0.00001673  0.00012793  0.00008447  0.5
  Mn0+  Mn10  1  0.25001673  0.74987207  0.74991553  0.5
  Fe0+  Fe11  1  0.25001673  0.74987207  0.74991553  0.5
  Mn0+  Mn12  1  -0.00001673  0.50012793  0.50008447  0.5
  Fe0+  Fe13  1  -0.00001673  0.50012793  0.50008447  0.5
  Mn0+  Mn14  1  0.25001673  0.24987207  0.24991553  0.5
  Fe0+  Fe15  1  0.25001673  0.24987207  0.24991553  0.5
  Fe0+  Fe16  1  0.87500000  0.87500000  0.62500000  1.0
  Fe0+  Fe17  1  0.12500000  0.62500000  0.12500000  1.0
  Fe0+  Fe18  1  0.12500000  0.87500000  0.37500000  1.0
  Fe0+  Fe19  1  0.37500000  0.62500000  0.37500000  1.0
  Fe0+  Fe20  1  0.87500000  0.37500000  0.12500000  1.0
  Fe0+  Fe21  1  0.12500000  0.12500000  0.62500000  1.0
  Fe0+  Fe22  1  0.12500000  0.37500000  0.87500000  1.0
  Fe0+  Fe23  1  0.37500000  0.12500000  0.87500000  1.0
  Fe0+  Fe24  1  0.37500000  0.87500000  0.12500000  1.0
  Fe0+  Fe25  1  0.62500000  0.62500000  0.62500000  1.0
  Fe0+  Fe26  1  0.62500000  0.87500000  0.87500000  1.0
  Fe0+  Fe27  1  0.87500000  0.62500000  0.87500000  1.0
  Fe0+  Fe28  1  0.37500000  0.37500000  0.62500000  1.0
  Fe0+  Fe29  1  0.62500000  0.12500000  0.12500000  1.0
  Fe0+  Fe30  1  0.62500000  0.37500000  0.37500000  1.0
  Fe0+  Fe31  1  0.87500000  0.12500000  0.37500000  1.0
  O0+  O32  1  0.13749129  0.86402399  0.13748118  1.0
  O0+  O33  1  0.11355135  0.11331999  0.38666917  1.0
  O0+  O34  1  0.88720857  0.88698709  0.38707217  1.0
  O0+  O35  1  0.13644865  0.63668001  0.36333083  1.0
  O0+  O36  1  0.88701252  0.11366014  0.61361608  1.0
  O0+  O37  1  0.36279143  0.86301291  0.36292783  1.0
  O0+  O38  1  0.11250871  0.88597601  0.61251882  1.0
  O0+  O39  1  0.36298748  0.63633986  0.13638392  1.0
  O0+  O40  1  0.13749129  0.36402399  0.63748118  1.0
  O0+  O41  1  0.11355135  0.61331999  0.88666917  1.0
  O0+  O42  1  0.88720857  0.38698709  0.88707217  1.0
  O0+  O43  1  0.13644865  0.13668001  0.86333083  1.0
  O0+  O44  1  0.88701252  0.61366014  0.11361608  1.0
  O0+  O45  1  0.36279143  0.36301291  0.86292783  1.0
  O0+  O46  1  0.11250871  0.38597601  0.11251882  1.0
  O0+  O47  1  0.36298748  0.13633986  0.63638392  1.0
  O0+  O48  1  0.63749129  0.86402399  0.63748118  1.0
  O0+  O49  1  0.61355135  0.11331999  0.88666917  1.0
  O0+  O50  1  0.38720857  0.88698709  0.88707217  1.0
  O0+  O51  1  0.63644865  0.63668001  0.86333083  1.0
  O0+  O52  1  0.38701252  0.11366014  0.11361608  1.0
  O0+  O53  1  0.86279143  0.86301291  0.86292783  1.0
  O0+  O54  1  0.61250871  0.88597601  0.11251882  1.0
  O0+  O55  1  0.86298748  0.63633986  0.63638392  1.0
  O0+  O56  1  0.63749129  0.36402399  0.13748118  1.0
  O0+  O57  1  0.61355135  0.61331999  0.38666917  1.0
  O0+  O58  1  0.38720857  0.38698709  0.38707217  1.0
  O0+  O59  1  0.63644865  0.13668001  0.36333083  1.0
  O0+  O60  1  0.38701252  0.61366014  0.61361608  1.0
  O0+  O61  1  0.86279143  0.36301291  0.36292783  1.0
  O0+  O62  1  0.61250871  0.38597601  0.61251882  1.0
  O0+  O63  1  0.86298748  0.13633986  0.13638392  1.0
