# generated using pymatgen
data_Fe2O3
_symmetry_space_group_name_H-M   'P 1'
_cell_length_a   9.55611400
_cell_length_b   9.55611400
_cell_length_c   9.55611400
_cell_angle_alpha   90.00000000
_cell_angle_beta   90.00000000
_cell_angle_gamma   90.00000000
_symmetry_Int_Tables_number   1
_chemical_formula_structural   Fe2O3
_chemical_formula_sum   'Fe32 O48'
_cell_volume   872.65778245
_cell_formula_units_Z   16
loop_
 _symmetry_equiv_pos_site_id
 _symmetry_equiv_pos_as_xyz
  1  'x, y, z'
loop_
 _atom_type_symbol
 _atom_type_oxidation_number
  Fe3+  3.0
  O2-  -2.0
loop_
 _atom_site_type_symbol
 _atom_site_label
 _atom_site_symmetry_multiplicity
 _atom_site_fract_x
 _atom_site_fract_y
 _atom_site_fract_z
 _atom_site_occupancy
  Fe3+  Fe0  1  0.46193900  0.50000000  0.75000000  1
  Fe3+  Fe1  1  0.50000000  0.25000000  0.03806100  1
  Fe3+  Fe2  1  0.03806100  0.00000000  0.75000000  1
  Fe3+  Fe3  1  0.75000000  0.03806100  0.00000000  1
  Fe3+  Fe4  1  0.46193900  0.00000000  0.25000000  1
  Fe3+  Fe5  1  0.75000000  0.46193900  0.50000000  1
  Fe3+  Fe6  1  0.25000000  0.03806100  0.50000000  1
  Fe3+  Fe7  1  0.25000000  0.46193900  0.00000000  1
  Fe3+  Fe8  1  0.25000000  0.25000000  0.75000000  1
  Fe3+  Fe9  1  0.03806100  0.50000000  0.25000000  1
  Fe3+  Fe10  1  0.50000000  0.75000000  0.46193900  1
  Fe3+  Fe11  1  0.00000000  0.75000000  0.03806100  1
  Fe3+  Fe12  1  0.00000000  0.25000000  0.46193900  1
  Fe3+  Fe13  1  0.75000000  0.25000000  0.25000000  1
  Fe3+  Fe14  1  0.25000000  0.25000000  0.25000000  1
  Fe3+  Fe15  1  0.25000000  0.75000000  0.25000000  1
  Fe3+  Fe16  1  0.96193900  0.00000000  0.25000000  1
  Fe3+  Fe17  1  0.00000000  0.75000000  0.53806100  1
  Fe3+  Fe18  1  0.53806100  0.50000000  0.25000000  1
  Fe3+  Fe19  1  0.25000000  0.53806100  0.50000000  1
  Fe3+  Fe20  1  0.96193900  0.50000000  0.75000000  1
  Fe3+  Fe21  1  0.25000000  0.96193900  0.00000000  1
  Fe3+  Fe22  1  0.75000000  0.53806100  0.00000000  1
  Fe3+  Fe23  1  0.75000000  0.96193900  0.50000000  1
  Fe3+  Fe24  1  0.75000000  0.75000000  0.25000000  1
  Fe3+  Fe25  1  0.53806100  0.00000000  0.75000000  1
  Fe3+  Fe26  1  0.00000000  0.25000000  0.96193900  1
  Fe3+  Fe27  1  0.50000000  0.25000000  0.53806100  1
  Fe3+  Fe28  1  0.50000000  0.75000000  0.96193900  1
  Fe3+  Fe29  1  0.25000000  0.75000000  0.75000000  1
  Fe3+  Fe30  1  0.75000000  0.75000000  0.75000000  1
  Fe3+  Fe31  1  0.75000000  0.25000000  0.75000000  1
  O2-  O32  1  0.89023900  0.15732300  0.11625900  1
  O2-  O33  1  0.61625900  0.10976100  0.15732300  1
  O2-  O34  1  0.15732300  0.61625900  0.10976100  1
  O2-  O35  1  0.11625900  0.89023900  0.15732300  1
  O2-  O36  1  0.15732300  0.88374100  0.60976100  1
  O2-  O37  1  0.15732300  0.11625900  0.89023900  1
  O2-  O38  1  0.34267700  0.11625900  0.10976100  1
  O2-  O39  1  0.38374100  0.39023900  0.15732300  1
  O2-  O40  1  0.34267700  0.61625900  0.89023900  1
  O2-  O41  1  0.61625900  0.89023900  0.34267700  1
  O2-  O42  1  0.39023900  0.15732300  0.38374100  1
  O2-  O43  1  0.89023900  0.34267700  0.61625900  1
  O2-  O44  1  0.38374100  0.60976100  0.34267700  1
  O2-  O45  1  0.60976100  0.15732300  0.88374100  1
  O2-  O46  1  0.88374100  0.39023900  0.34267700  1
  O2-  O47  1  0.15732300  0.38374100  0.39023900  1
  O2-  O48  1  0.11625900  0.10976100  0.34267700  1
  O2-  O49  1  0.88374100  0.60976100  0.15732300  1
  O2-  O50  1  0.10976100  0.34267700  0.11625900  1
  O2-  O51  1  0.10976100  0.15732300  0.61625900  1
  O2-  O52  1  0.34267700  0.38374100  0.60976100  1
  O2-  O53  1  0.39023900  0.34267700  0.88374100  1
  O2-  O54  1  0.60976100  0.34267700  0.38374100  1
  O2-  O55  1  0.34267700  0.88374100  0.39023900  1
  O2-  O56  1  0.39023900  0.65732300  0.61625900  1
  O2-  O57  1  0.11625900  0.60976100  0.65732300  1
  O2-  O58  1  0.65732300  0.11625900  0.60976100  1
  O2-  O59  1  0.61625900  0.39023900  0.65732300  1
  O2-  O60  1  0.65732300  0.38374100  0.10976100  1
  O2-  O61  1  0.65732300  0.61625900  0.39023900  1
  O2-  O62  1  0.84267700  0.61625900  0.60976100  1
  O2-  O63  1  0.88374100  0.89023900  0.65732300  1
  O2-  O64  1  0.84267700  0.11625900  0.39023900  1
  O2-  O65  1  0.11625900  0.39023900  0.84267700  1
  O2-  O66  1  0.89023900  0.65732300  0.88374100  1
  O2-  O67  1  0.39023900  0.84267700  0.11625900  1
  O2-  O68  1  0.88374100  0.10976100  0.84267700  1
  O2-  O69  1  0.10976100  0.65732300  0.38374100  1
  O2-  O70  1  0.38374100  0.89023900  0.84267700  1
  O2-  O71  1  0.65732300  0.88374100  0.89023900  1
  O2-  O72  1  0.61625900  0.60976100  0.84267700  1
  O2-  O73  1  0.38374100  0.10976100  0.65732300  1
  O2-  O74  1  0.60976100  0.84267700  0.61625900  1
  O2-  O75  1  0.60976100  0.65732300  0.11625900  1
  O2-  O76  1  0.84267700  0.88374100  0.10976100  1
  O2-  O77  1  0.89023900  0.84267700  0.38374100  1
  O2-  O78  1  0.10976100  0.84267700  0.88374100  1
  O2-  O79  1  0.84267700  0.38374100  0.89023900  1
