# generated using pymatgen
data_Fe7O8
_symmetry_space_group_name_H-M   'P 1'
_cell_length_a   8.67428600
_cell_length_b   8.67428600
_cell_length_c   8.67428600
_cell_angle_alpha   90.00000000
_cell_angle_beta   90.00000000
_cell_angle_gamma   90.00000000
_symmetry_Int_Tables_number   1
_chemical_formula_structural   Fe7O8
_chemical_formula_sum   'Fe28 O32'
_cell_volume   652.68136259
_cell_formula_units_Z   4
loop_
 _symmetry_equiv_pos_site_id
 _symmetry_equiv_pos_as_xyz
  1  'x, y, z'
loop_
 _atom_type_symbol
 _atom_type_oxidation_number
  Fe2.28571429+  2.2857142857142856
  O2-  -2.0
loop_
 _atom_site_type_symbol
 _atom_site_label
 _atom_site_symmetry_multiplicity
 _atom_site_fract_x
 _atom_site_fract_y
 _atom_site_fract_z
 _atom_site_occupancy
  Fe2.28571429+  Fe0  1  0.00000000  0.75000000  0.75000000  1
  Fe2.28571429+  Fe1  1  0.75000000  0.00000000  0.75000000  1
  Fe2.28571429+  Fe2  1  0.25000000  0.00000000  0.75000000  1
  Fe2.28571429+  Fe3  1  0.25000000  0.75000000  0.00000000  1
  Fe2.28571429+  Fe4  1  0.00000000  0.25000000  0.75000000  1
  Fe2.28571429+  Fe5  1  0.50000000  0.00000000  0.00000000  1
  Fe2.28571429+  Fe6  1  0.25000000  0.25000000  0.00000000  1
  Fe2.28571429+  Fe7  1  0.00000000  0.25000000  0.25000000  1
  Fe2.28571429+  Fe8  1  0.75000000  0.50000000  0.25000000  1
  Fe2.28571429+  Fe9  1  0.25000000  0.50000000  0.25000000  1
  Fe2.28571429+  Fe10  1  0.25000000  0.25000000  0.50000000  1
  Fe2.28571429+  Fe11  1  0.00000000  0.75000000  0.25000000  1
  Fe2.28571429+  Fe12  1  0.50000000  0.50000000  0.50000000  1
  Fe2.28571429+  Fe13  1  0.25000000  0.75000000  0.50000000  1
  Fe2.28571429+  Fe14  1  0.50000000  0.75000000  0.25000000  1
  Fe2.28571429+  Fe15  1  0.25000000  0.00000000  0.25000000  1
  Fe2.28571429+  Fe16  1  0.75000000  0.00000000  0.25000000  1
  Fe2.28571429+  Fe17  1  0.75000000  0.75000000  0.50000000  1
  Fe2.28571429+  Fe18  1  0.50000000  0.25000000  0.25000000  1
  Fe2.28571429+  Fe19  1  0.00000000  0.00000000  0.50000000  1
  Fe2.28571429+  Fe20  1  0.75000000  0.25000000  0.50000000  1
  Fe2.28571429+  Fe21  1  0.50000000  0.25000000  0.75000000  1
  Fe2.28571429+  Fe22  1  0.25000000  0.50000000  0.75000000  1
  Fe2.28571429+  Fe23  1  0.75000000  0.50000000  0.75000000  1
  Fe2.28571429+  Fe24  1  0.75000000  0.25000000  0.00000000  1
  Fe2.28571429+  Fe25  1  0.50000000  0.75000000  0.75000000  1
  Fe2.28571429+  Fe26  1  0.00000000  0.50000000  0.00000000  1
  Fe2.28571429+  Fe27  1  0.75000000  0.75000000  0.00000000  1
  O2-  O28  1  0.25000000  0.75000000  0.75000000  1
  O2-  O29  1  0.26351800  0.00000000  0.00000000  1
  O2-  O30  1  0.50000000  0.00000000  0.76351800  1
  O2-  O31  1  0.50000000  0.76351800  0.00000000  1
  O2-  O32  1  0.50000000  0.23648200  0.00000000  1
  O2-  O33  1  0.00000000  0.00000000  0.73648200  1
  O2-  O34  1  0.73648200  0.00000000  0.00000000  1
  O2-  O35  1  0.25000000  0.25000000  0.75000000  1
  O2-  O36  1  0.25000000  0.25000000  0.25000000  1
  O2-  O37  1  0.26351800  0.50000000  0.50000000  1
  O2-  O38  1  0.50000000  0.50000000  0.26351800  1
  O2-  O39  1  0.50000000  0.26351800  0.50000000  1
  O2-  O40  1  0.50000000  0.73648200  0.50000000  1
  O2-  O41  1  0.00000000  0.50000000  0.23648200  1
  O2-  O42  1  0.73648200  0.50000000  0.50000000  1
  O2-  O43  1  0.25000000  0.75000000  0.25000000  1
  O2-  O44  1  0.75000000  0.75000000  0.25000000  1
  O2-  O45  1  0.76351800  0.00000000  0.50000000  1
  O2-  O46  1  0.00000000  0.00000000  0.26351800  1
  O2-  O47  1  0.00000000  0.76351800  0.50000000  1
  O2-  O48  1  0.00000000  0.23648200  0.50000000  1
  O2-  O49  1  0.50000000  0.00000000  0.23648200  1
  O2-  O50  1  0.23648200  0.00000000  0.50000000  1
  O2-  O51  1  0.75000000  0.25000000  0.25000000  1
  O2-  O52  1  0.75000000  0.25000000  0.75000000  1
  O2-  O53  1  0.76351800  0.50000000  0.00000000  1
  O2-  O54  1  0.00000000  0.50000000  0.76351800  1
  O2-  O55  1  0.00000000  0.26351800  0.00000000  1
  O2-  O56  1  0.00000000  0.73648200  0.00000000  1
  O2-  O57  1  0.50000000  0.50000000  0.73648200  1
  O2-  O58  1  0.23648200  0.50000000  0.00000000  1
  O2-  O59  1  0.75000000  0.75000000  0.75000000  1
