# generated using pymatgen
data_FeO2
_symmetry_space_group_name_H-M   'P 1'
_cell_length_a   8.15660000
_cell_length_b   8.15660000
_cell_length_c   8.15660000
_cell_angle_alpha   90.00000000
_cell_angle_beta   90.00000000
_cell_angle_gamma   90.00000000
_symmetry_Int_Tables_number   1
_chemical_formula_structural   FeO2
_chemical_formula_sum   'Fe16 O32'
_cell_volume   542.65960583
_cell_formula_units_Z   16
loop_
 _symmetry_equiv_pos_site_id
 _symmetry_equiv_pos_as_xyz
  1  'x, y, z'
loop_
 _atom_type_symbol
 _atom_type_oxidation_number
  Fe4+  4.0
  O2-  -2.0
loop_
 _atom_site_type_symbol
 _atom_site_label
 _atom_site_symmetry_multiplicity
 _atom_site_fract_x
 _atom_site_fract_y
 _atom_site_fract_z
 _atom_site_occupancy
  Fe4+  Fe0  1  0.12500000  0.62500000  0.12500000  1
  Fe4+  Fe1  1  0.37500000  0.87500000  0.12500000  1
  Fe4+  Fe2  1  0.37500000  0.62500000  0.37500000  1
  Fe4+  Fe3  1  0.12500000  0.87500000  0.37500000  1
  Fe4+  Fe4  1  0.12500000  0.12500000  0.62500000  1
  Fe4+  Fe5  1  0.37500000  0.37500000  0.62500000  1
  Fe4+  Fe6  1  0.37500000  0.12500000  0.87500000  1
  Fe4+  Fe7  1  0.12500000  0.37500000  0.87500000  1
  Fe4+  Fe8  1  0.62500000  0.62500000  0.62500000  1
  Fe4+  Fe9  1  0.87500000  0.87500000  0.62500000  1
  Fe4+  Fe10  1  0.87500000  0.62500000  0.87500000  1
  Fe4+  Fe11  1  0.62500000  0.87500000  0.87500000  1
  Fe4+  Fe12  1  0.62500000  0.12500000  0.12500000  1
  Fe4+  Fe13  1  0.87500000  0.37500000  0.12500000  1
  Fe4+  Fe14  1  0.87500000  0.12500000  0.37500000  1
  Fe4+  Fe15  1  0.62500000  0.37500000  0.37500000  1
  O2-  O16  1  0.86178033  0.13821967  0.13821967  1
  O2-  O17  1  0.36178033  0.86178033  0.36178033  1
  O2-  O18  1  0.38821967  0.11178033  0.11178033  1
  O2-  O19  1  0.11178033  0.11178033  0.38821967  1
  O2-  O20  1  0.38821967  0.38821967  0.38821967  1
  O2-  O21  1  0.11178033  0.38821967  0.11178033  1
  O2-  O22  1  0.63821967  0.13821967  0.36178033  1
  O2-  O23  1  0.13821967  0.86178033  0.13821967  1
  O2-  O24  1  0.86178033  0.63821967  0.63821967  1
  O2-  O25  1  0.36178033  0.36178033  0.86178033  1
  O2-  O26  1  0.38821967  0.61178033  0.61178033  1
  O2-  O27  1  0.11178033  0.61178033  0.88821967  1
  O2-  O28  1  0.38821967  0.88821967  0.88821967  1
  O2-  O29  1  0.11178033  0.88821967  0.61178033  1
  O2-  O30  1  0.63821967  0.63821967  0.86178033  1
  O2-  O31  1  0.13821967  0.36178033  0.63821967  1
  O2-  O32  1  0.36178033  0.13821967  0.63821967  1
  O2-  O33  1  0.86178033  0.86178033  0.86178033  1
  O2-  O34  1  0.88821967  0.11178033  0.61178033  1
  O2-  O35  1  0.61178033  0.11178033  0.88821967  1
  O2-  O36  1  0.88821967  0.38821967  0.88821967  1
  O2-  O37  1  0.61178033  0.38821967  0.61178033  1
  O2-  O38  1  0.13821967  0.13821967  0.86178033  1
  O2-  O39  1  0.63821967  0.86178033  0.63821967  1
  O2-  O40  1  0.36178033  0.63821967  0.13821967  1
  O2-  O41  1  0.86178033  0.36178033  0.36178033  1
  O2-  O42  1  0.88821967  0.61178033  0.11178033  1
  O2-  O43  1  0.61178033  0.61178033  0.38821967  1
  O2-  O44  1  0.88821967  0.88821967  0.38821967  1
  O2-  O45  1  0.61178033  0.88821967  0.11178033  1
  O2-  O46  1  0.13821967  0.63821967  0.36178033  1
  O2-  O47  1  0.63821967  0.36178033  0.13821967  1
