# generated using pymatgen
data_Mg6MnO8
_symmetry_space_group_name_H-M   'P 1'
_cell_length_a   8.35753573
_cell_length_b   8.35753573
_cell_length_c   8.35753573
_cell_angle_alpha   90.00000000
_cell_angle_beta   90.00000000
_cell_angle_gamma   90.00000000
_symmetry_Int_Tables_number   1
_chemical_formula_structural   Mg6MnO8
_chemical_formula_sum   'Mg24 Mn4 O32'
_cell_volume   583.76052724
_cell_formula_units_Z   4
loop_
 _symmetry_equiv_pos_site_id
 _symmetry_equiv_pos_as_xyz
  1  'x, y, z'
loop_
 _atom_type_symbol
 _atom_type_oxidation_number
  Mg2+  2.0
  Mn4+  4.0
  O2-  -2.0
loop_
 _atom_site_type_symbol
 _atom_site_label
 _atom_site_symmetry_multiplicity
 _atom_site_fract_x
 _atom_site_fract_y
 _atom_site_fract_z
 _atom_site_occupancy
  Mg2+  Mg0  1  0.75000000  0.75000000  0.50000000  1
  Mg2+  Mg1  1  0.25000000  0.50000000  0.25000000  1
  Mg2+  Mg2  1  0.25000000  0.50000000  0.75000000  1
  Mg2+  Mg3  1  0.25000000  0.25000000  0.00000000  1
  Mg2+  Mg4  1  0.00000000  0.75000000  0.75000000  1
  Mg2+  Mg5  1  0.00000000  0.75000000  0.25000000  1
  Mg2+  Mg6  1  0.75000000  0.25000000  0.00000000  1
  Mg2+  Mg7  1  0.25000000  0.00000000  0.75000000  1
  Mg2+  Mg8  1  0.25000000  0.00000000  0.25000000  1
  Mg2+  Mg9  1  0.25000000  0.75000000  0.50000000  1
  Mg2+  Mg10  1  0.00000000  0.25000000  0.25000000  1
  Mg2+  Mg11  1  0.00000000  0.25000000  0.75000000  1
  Mg2+  Mg12  1  0.25000000  0.75000000  0.00000000  1
  Mg2+  Mg13  1  0.75000000  0.50000000  0.75000000  1
  Mg2+  Mg14  1  0.75000000  0.50000000  0.25000000  1
  Mg2+  Mg15  1  0.75000000  0.25000000  0.50000000  1
  Mg2+  Mg16  1  0.50000000  0.75000000  0.25000000  1
  Mg2+  Mg17  1  0.50000000  0.75000000  0.75000000  1
  Mg2+  Mg18  1  0.25000000  0.25000000  0.50000000  1
  Mg2+  Mg19  1  0.75000000  0.00000000  0.25000000  1
  Mg2+  Mg20  1  0.75000000  0.00000000  0.75000000  1
  Mg2+  Mg21  1  0.75000000  0.75000000  0.00000000  1
  Mg2+  Mg22  1  0.50000000  0.25000000  0.75000000  1
  Mg2+  Mg23  1  0.50000000  0.25000000  0.25000000  1
  Mn4+  Mn24  1  0.00000000  0.50000000  0.50000000  1
  Mn4+  Mn25  1  0.00000000  0.00000000  0.00000000  1
  Mn4+  Mn26  1  0.50000000  0.50000000  0.00000000  1
  Mn4+  Mn27  1  0.50000000  0.00000000  0.50000000  1
  O2-  O28  1  0.25000000  0.25000000  0.25000000  1
  O2-  O29  1  0.75000000  0.75000000  0.75000000  1
  O2-  O30  1  0.00000000  0.50000000  0.27133296  1
  O2-  O31  1  0.00000000  0.77133296  0.00000000  1
  O2-  O32  1  0.00000000  0.22866704  0.00000000  1
  O2-  O33  1  0.72866704  0.50000000  0.00000000  1
  O2-  O34  1  0.27133296  0.50000000  0.00000000  1
  O2-  O35  1  0.00000000  0.50000000  0.72866704  1
  O2-  O36  1  0.25000000  0.75000000  0.75000000  1
  O2-  O37  1  0.75000000  0.25000000  0.25000000  1
  O2-  O38  1  0.00000000  0.00000000  0.77133296  1
  O2-  O39  1  0.00000000  0.27133296  0.50000000  1
  O2-  O40  1  0.00000000  0.72866704  0.50000000  1
  O2-  O41  1  0.72866704  0.00000000  0.50000000  1
  O2-  O42  1  0.27133296  0.00000000  0.50000000  1
  O2-  O43  1  0.00000000  0.00000000  0.22866704  1
  O2-  O44  1  0.75000000  0.25000000  0.75000000  1
  O2-  O45  1  0.25000000  0.75000000  0.25000000  1
  O2-  O46  1  0.50000000  0.50000000  0.77133296  1
  O2-  O47  1  0.50000000  0.77133296  0.50000000  1
  O2-  O48  1  0.50000000  0.22866704  0.50000000  1
  O2-  O49  1  0.22866704  0.50000000  0.50000000  1
  O2-  O50  1  0.77133296  0.50000000  0.50000000  1
  O2-  O51  1  0.50000000  0.50000000  0.22866704  1
  O2-  O52  1  0.75000000  0.75000000  0.25000000  1
  O2-  O53  1  0.25000000  0.25000000  0.75000000  1
  O2-  O54  1  0.50000000  0.00000000  0.27133296  1
  O2-  O55  1  0.50000000  0.27133296  0.00000000  1
  O2-  O56  1  0.50000000  0.72866704  0.00000000  1
  O2-  O57  1  0.22866704  0.00000000  0.00000000  1
  O2-  O58  1  0.77133296  0.00000000  0.00000000  1
  O2-  O59  1  0.50000000  0.00000000  0.72866704  1
