# generated using pymatgen
data_Mg(FeO2)2
_symmetry_space_group_name_H-M   'P 1'
_cell_length_a   5.94864308
_cell_length_b   5.94864308
_cell_length_c   8.49277147
_cell_angle_alpha   90.00000000
_cell_angle_beta   90.00000000
_cell_angle_gamma   90.00000000
_symmetry_Int_Tables_number   1
_chemical_formula_structural   Mg(FeO2)2
_chemical_formula_sum   'Mg4 Fe8 O16'
_cell_volume   300.52822197
_cell_formula_units_Z   4
loop_
 _symmetry_equiv_pos_site_id
 _symmetry_equiv_pos_as_xyz
  1  'x, y, z'
loop_
 _atom_type_symbol
 _atom_type_oxidation_number
  Mg2+  2.0
  Fe3+  3.0
  O2-  -2.0
loop_
 _atom_site_type_symbol
 _atom_site_label
 _atom_site_symmetry_multiplicity
 _atom_site_fract_x
 _atom_site_fract_y
 _atom_site_fract_z
 _atom_site_occupancy
  Mg2+  Mg0  1  0.50000000  0.50000000  0.50000000  1
  Mg2+  Mg1  1  0.50000000  0.00000000  0.75000000  1
  Mg2+  Mg2  1  0.00000000  0.00000000  0.00000000  1
  Mg2+  Mg3  1  0.00000000  0.50000000  0.25000000  1
  Fe3+  Fe4  1  0.00000000  0.25000000  0.62500000  1
  Fe3+  Fe5  1  0.00000000  0.75000000  0.62500000  1
  Fe3+  Fe6  1  0.25000000  0.00000000  0.37500000  1
  Fe3+  Fe7  1  0.25000000  0.50000000  0.87500000  1
  Fe3+  Fe8  1  0.50000000  0.75000000  0.12500000  1
  Fe3+  Fe9  1  0.50000000  0.25000000  0.12500000  1
  Fe3+  Fe10  1  0.75000000  0.50000000  0.87500000  1
  Fe3+  Fe11  1  0.75000000  0.00000000  0.37500000  1
  O2-  O12  1  0.22947017  0.00000000  0.61445337  1
  O2-  O13  1  0.22947017  0.50000000  0.63554663  1
  O2-  O14  1  0.00000000  0.27052983  0.86445337  1
  O2-  O15  1  0.00000000  0.72947017  0.86445337  1
  O2-  O16  1  0.00000000  0.22947017  0.38554663  1
  O2-  O17  1  0.00000000  0.77052983  0.38554663  1
  O2-  O18  1  0.77052983  0.50000000  0.63554663  1
  O2-  O19  1  0.77052983  0.00000000  0.61445337  1
  O2-  O20  1  0.72947017  0.50000000  0.11445337  1
  O2-  O21  1  0.72947017  0.00000000  0.13554663  1
  O2-  O22  1  0.50000000  0.77052983  0.36445337  1
  O2-  O23  1  0.50000000  0.22947017  0.36445337  1
  O2-  O24  1  0.50000000  0.72947017  0.88554663  1
  O2-  O25  1  0.50000000  0.27052983  0.88554663  1
  O2-  O26  1  0.27052983  0.00000000  0.13554663  1
  O2-  O27  1  0.27052983  0.50000000  0.11445337  1
