# generated using pymatgen
data_MgMnO2
_symmetry_space_group_name_H-M   'P 1'
_cell_length_a   6.11278789
_cell_length_b   6.11278789
_cell_length_c   8.61281886
_cell_angle_alpha   90.00000000
_cell_angle_beta   90.00000000
_cell_angle_gamma   90.00000000
_symmetry_Int_Tables_number   1
_chemical_formula_structural   MgMnO2
_chemical_formula_sum   'Mg8 Mn8 O16'
_cell_volume   321.82810393
_cell_formula_units_Z   8
loop_
 _symmetry_equiv_pos_site_id
 _symmetry_equiv_pos_as_xyz
  1  'x, y, z'
loop_
 _atom_type_symbol
 _atom_type_oxidation_number
  Mg2+  2.0
  Mn2+  2.0
  O2-  -2.0
loop_
 _atom_site_type_symbol
 _atom_site_label
 _atom_site_symmetry_multiplicity
 _atom_site_fract_x
 _atom_site_fract_y
 _atom_site_fract_z
 _atom_site_occupancy
  Mg2+  Mg0  1  0.25000000  0.50000000  0.37500000  1
  Mg2+  Mg1  1  0.00000000  0.25000000  0.12500000  1
  Mg2+  Mg2  1  0.75000000  0.50000000  0.37500000  1
  Mg2+  Mg3  1  0.50000000  0.25000000  0.62500000  1
  Mg2+  Mg4  1  0.75000000  0.00000000  0.87500000  1
  Mg2+  Mg5  1  0.50000000  0.75000000  0.62500000  1
  Mg2+  Mg6  1  0.25000000  0.00000000  0.87500000  1
  Mg2+  Mg7  1  0.00000000  0.75000000  0.12500000  1
  Mn2+  Mn8  1  0.25000000  0.00000000  0.37500000  1
  Mn2+  Mn9  1  0.25000000  0.50000000  0.87500000  1
  Mn2+  Mn10  1  0.50000000  0.75000000  0.12500000  1
  Mn2+  Mn11  1  0.50000000  0.25000000  0.12500000  1
  Mn2+  Mn12  1  0.75000000  0.50000000  0.87500000  1
  Mn2+  Mn13  1  0.75000000  0.00000000  0.37500000  1
  Mn2+  Mn14  1  0.00000000  0.25000000  0.62500000  1
  Mn2+  Mn15  1  0.00000000  0.75000000  0.62500000  1
  O2-  O16  1  0.23965803  0.00000000  0.11962649  1
  O2-  O17  1  0.00000000  0.23965803  0.88037351  1
  O2-  O18  1  0.26034197  0.50000000  0.61962649  1
  O2-  O19  1  0.50000000  0.26034197  0.38037351  1
  O2-  O20  1  0.00000000  0.26034197  0.36962649  1
  O2-  O21  1  0.76034197  0.50000000  0.13037351  1
  O2-  O22  1  0.50000000  0.23965803  0.86962649  1
  O2-  O23  1  0.73965803  0.00000000  0.63037351  1
  O2-  O24  1  0.73965803  0.50000000  0.61962649  1
  O2-  O25  1  0.50000000  0.73965803  0.38037351  1
  O2-  O26  1  0.76034197  0.00000000  0.11962649  1
  O2-  O27  1  0.00000000  0.76034197  0.88037351  1
  O2-  O28  1  0.50000000  0.76034197  0.86962649  1
  O2-  O29  1  0.26034197  0.00000000  0.63037351  1
  O2-  O30  1  0.00000000  0.73965803  0.36962649  1
  O2-  O31  1  0.23965803  0.50000000  0.13037351  1
