# generated using pymatgen
data_Mn2O3
_symmetry_space_group_name_H-M   'P 1'
_cell_length_a   9.42082994
_cell_length_b   9.42082994
_cell_length_c   9.42082994
_cell_angle_alpha   90.00000000
_cell_angle_beta   90.00000000
_cell_angle_gamma   90.00000000
_symmetry_Int_Tables_number   1
_chemical_formula_structural   Mn2O3
_chemical_formula_sum   'Mn32 O48'
_cell_volume   836.11784526
_cell_formula_units_Z   16
loop_
 _symmetry_equiv_pos_site_id
 _symmetry_equiv_pos_as_xyz
  1  'x, y, z'
loop_
 _atom_type_symbol
 _atom_type_oxidation_number
  Mn3+  3.0
  O2-  -2.0
loop_
 _atom_site_type_symbol
 _atom_site_label
 _atom_site_symmetry_multiplicity
 _atom_site_fract_x
 _atom_site_fract_y
 _atom_site_fract_z
 _atom_site_occupancy
  Mn3+  Mn0  1  0.00000000  0.50000000  0.50000000  1
  Mn3+  Mn1  1  0.50000000  0.50000000  0.00000000  1
  Mn3+  Mn2  1  0.50000000  0.00000000  0.50000000  1
  Mn3+  Mn3  1  0.50000000  0.50000000  0.50000000  1
  Mn3+  Mn4  1  0.28482001  0.50000000  0.75000000  1
  Mn3+  Mn5  1  0.71517999  0.00000000  0.75000000  1
  Mn3+  Mn6  1  0.75000000  0.28482001  0.50000000  1
  Mn3+  Mn7  1  0.75000000  0.71517999  0.00000000  1
  Mn3+  Mn8  1  0.50000000  0.75000000  0.28482001  1
  Mn3+  Mn9  1  0.00000000  0.75000000  0.71517999  1
  Mn3+  Mn10  1  0.71517999  0.50000000  0.25000000  1
  Mn3+  Mn11  1  0.28482001  0.00000000  0.25000000  1
  Mn3+  Mn12  1  0.25000000  0.71517999  0.50000000  1
  Mn3+  Mn13  1  0.25000000  0.28482001  0.00000000  1
  Mn3+  Mn14  1  0.50000000  0.25000000  0.71517999  1
  Mn3+  Mn15  1  0.00000000  0.25000000  0.28482001  1
  Mn3+  Mn16  1  0.50000000  0.00000000  0.00000000  1
  Mn3+  Mn17  1  0.00000000  0.00000000  0.50000000  1
  Mn3+  Mn18  1  0.00000000  0.50000000  0.00000000  1
  Mn3+  Mn19  1  0.00000000  0.00000000  0.00000000  1
  Mn3+  Mn20  1  0.78482001  0.00000000  0.25000000  1
  Mn3+  Mn21  1  0.21517999  0.50000000  0.25000000  1
  Mn3+  Mn22  1  0.25000000  0.78482001  0.00000000  1
  Mn3+  Mn23  1  0.25000000  0.21517999  0.50000000  1
  Mn3+  Mn24  1  0.00000000  0.25000000  0.78482001  1
  Mn3+  Mn25  1  0.50000000  0.25000000  0.21517999  1
  Mn3+  Mn26  1  0.21517999  0.00000000  0.75000000  1
  Mn3+  Mn27  1  0.78482001  0.50000000  0.75000000  1
  Mn3+  Mn28  1  0.75000000  0.21517999  0.00000000  1
  Mn3+  Mn29  1  0.75000000  0.78482001  0.50000000  1
  Mn3+  Mn30  1  0.00000000  0.75000000  0.21517999  1
  Mn3+  Mn31  1  0.50000000  0.75000000  0.78482001  1
  O2-  O32  1  0.14458528  0.58327396  0.62839564  1
  O2-  O33  1  0.85541472  0.91672604  0.62839564  1
  O2-  O34  1  0.14458528  0.41672604  0.87160436  1
  O2-  O35  1  0.35541472  0.58327396  0.37160436  1
  O2-  O36  1  0.62839564  0.14458528  0.58327396  1
  O2-  O37  1  0.62839564  0.85541472  0.91672604  1
  O2-  O38  1  0.87160436  0.14458528  0.41672604  1
  O2-  O39  1  0.37160436  0.35541472  0.58327396  1
  O2-  O40  1  0.58327396  0.62839564  0.14458528  1
  O2-  O41  1  0.91672604  0.62839564  0.85541472  1
  O2-  O42  1  0.41672604  0.87160436  0.14458528  1
  O2-  O43  1  0.58327396  0.37160436  0.35541472  1
  O2-  O44  1  0.85541472  0.41672604  0.37160436  1
  O2-  O45  1  0.14458528  0.08327396  0.37160436  1
  O2-  O46  1  0.85541472  0.58327396  0.12839564  1
  O2-  O47  1  0.64458528  0.41672604  0.62839564  1
  O2-  O48  1  0.37160436  0.85541472  0.41672604  1
  O2-  O49  1  0.37160436  0.14458528  0.08327396  1
  O2-  O50  1  0.12839564  0.85541472  0.58327396  1
  O2-  O51  1  0.62839564  0.64458528  0.41672604  1
  O2-  O52  1  0.41672604  0.37160436  0.85541472  1
  O2-  O53  1  0.08327396  0.37160436  0.14458528  1
  O2-  O54  1  0.58327396  0.12839564  0.85541472  1
  O2-  O55  1  0.41672604  0.62839564  0.64458528  1
  O2-  O56  1  0.64458528  0.08327396  0.12839564  1
  O2-  O57  1  0.35541472  0.41672604  0.12839564  1
  O2-  O58  1  0.64458528  0.91672604  0.37160436  1
  O2-  O59  1  0.85541472  0.08327396  0.87160436  1
  O2-  O60  1  0.12839564  0.64458528  0.08327396  1
  O2-  O61  1  0.12839564  0.35541472  0.41672604  1
  O2-  O62  1  0.37160436  0.64458528  0.91672604  1
  O2-  O63  1  0.87160436  0.85541472  0.08327396  1
  O2-  O64  1  0.08327396  0.12839564  0.64458528  1
  O2-  O65  1  0.41672604  0.12839564  0.35541472  1
  O2-  O66  1  0.91672604  0.37160436  0.64458528  1
  O2-  O67  1  0.08327396  0.87160436  0.85541472  1
  O2-  O68  1  0.35541472  0.91672604  0.87160436  1
  O2-  O69  1  0.64458528  0.58327396  0.87160436  1
  O2-  O70  1  0.35541472  0.08327396  0.62839564  1
  O2-  O71  1  0.14458528  0.91672604  0.12839564  1
  O2-  O72  1  0.87160436  0.35541472  0.91672604  1
  O2-  O73  1  0.87160436  0.64458528  0.58327396  1
  O2-  O74  1  0.62839564  0.35541472  0.08327396  1
  O2-  O75  1  0.12839564  0.14458528  0.91672604  1
  O2-  O76  1  0.91672604  0.87160436  0.35541472  1
  O2-  O77  1  0.58327396  0.87160436  0.64458528  1
  O2-  O78  1  0.08327396  0.62839564  0.35541472  1
  O2-  O79  1  0.91672604  0.12839564  0.14458528  1
