# generated using pymatgen
data_Mn7O12
_symmetry_space_group_name_H-M   'P 1'
_cell_length_a   7.22244364
_cell_length_b   7.22244364
_cell_length_c   7.22244364
_cell_angle_alpha   90.00000000
_cell_angle_beta   90.00000000
_cell_angle_gamma   90.00000000
_symmetry_Int_Tables_number   1
_chemical_formula_structural   Mn7O12
_chemical_formula_sum   'Mn14 O24'
_cell_volume   376.74932624
_cell_formula_units_Z   2
loop_
 _symmetry_equiv_pos_site_id
 _symmetry_equiv_pos_as_xyz
  1  'x, y, z'
loop_
 _atom_type_symbol
 _atom_type_oxidation_number
  Mn3+  3.0
  Mn4+  4.0
  O2-  -2.0
loop_
 _atom_site_type_symbol
 _atom_site_label
 _atom_site_symmetry_multiplicity
 _atom_site_fract_x
 _atom_site_fract_y
 _atom_site_fract_z
 _atom_site_occupancy
  Mn3+  Mn0  1  0.75000000  0.25000000  0.25000000  1
  Mn3+  Mn1  1  0.75000000  0.25000000  0.75000000  1
  Mn3+  Mn2  1  0.25000000  0.25000000  0.25000000  1
  Mn3+  Mn3  1  0.25000000  0.25000000  0.75000000  1
  Mn3+  Mn4  1  0.25000000  0.75000000  0.75000000  1
  Mn3+  Mn5  1  0.25000000  0.75000000  0.25000000  1
  Mn3+  Mn6  1  0.75000000  0.75000000  0.75000000  1
  Mn3+  Mn7  1  0.75000000  0.75000000  0.25000000  1
  Mn4+  Mn8  1  0.00000000  0.00000000  0.50000000  1
  Mn4+  Mn9  1  0.50000000  0.00000000  0.00000000  1
  Mn4+  Mn10  1  0.00000000  0.50000000  0.00000000  1
  Mn4+  Mn11  1  0.50000000  0.50000000  0.00000000  1
  Mn4+  Mn12  1  0.00000000  0.50000000  0.50000000  1
  Mn4+  Mn13  1  0.50000000  0.00000000  0.50000000  1
  O2-  O14  1  0.00000000  0.18741911  0.68603842  1
  O2-  O15  1  0.31258089  0.81396158  0.50000000  1
  O2-  O16  1  0.00000000  0.18741911  0.31396158  1
  O2-  O17  1  0.81396158  0.50000000  0.31258089  1
  O2-  O18  1  0.31258089  0.18603842  0.50000000  1
  O2-  O19  1  0.31396158  0.00000000  0.18741911  1
  O2-  O20  1  0.18603842  0.50000000  0.31258089  1
  O2-  O21  1  0.18741911  0.31396158  0.00000000  1
  O2-  O22  1  0.68603842  0.00000000  0.18741911  1
  O2-  O23  1  0.50000000  0.31258089  0.18603842  1
  O2-  O24  1  0.18741911  0.68603842  0.00000000  1
  O2-  O25  1  0.50000000  0.31258089  0.81396158  1
  O2-  O26  1  0.50000000  0.68741911  0.18603842  1
  O2-  O27  1  0.81258089  0.31396158  0.00000000  1
  O2-  O28  1  0.50000000  0.68741911  0.81396158  1
  O2-  O29  1  0.31396158  0.00000000  0.81258089  1
  O2-  O30  1  0.81258089  0.68603842  0.00000000  1
  O2-  O31  1  0.81396158  0.50000000  0.68741911  1
  O2-  O32  1  0.68603842  0.00000000  0.81258089  1
  O2-  O33  1  0.68741911  0.81396158  0.50000000  1
  O2-  O34  1  0.18603842  0.50000000  0.68741911  1
  O2-  O35  1  0.00000000  0.81258089  0.68603842  1
  O2-  O36  1  0.68741911  0.18603842  0.50000000  1
  O2-  O37  1  0.00000000  0.81258089  0.31396158  1
